(PID.TID 0000.0001) 
(PID.TID 0000.0001) // ======================================================
(PID.TID 0000.0001) //                      MITgcm UV
(PID.TID 0000.0001) //                      =========
(PID.TID 0000.0001) // ======================================================
(PID.TID 0000.0001) // execution environment starting up...
(PID.TID 0000.0001) // Run starting Wed Apr  1 14:19:48 1998
(PID.TID 0000.0001) // on melville.lcs.mit.edu
(PID.TID 0000.0001) // account cnh
(PID.TID 0000.0001) // MITgcm UV Release: $Name$
(PID.TID 0000.0001) 
(PID.TID 0000.0001) // =======================================================
(PID.TID 0000.0001) // Execution Environment parameter file "eedata"
(PID.TID 0000.0001) // =======================================================
(PID.TID 0000.0001) ># Example "eedata" file
(PID.TID 0000.0001) ># Lines beginning "#" are comments
(PID.TID 0000.0001) ># nTx - No. threads per process in X
(PID.TID 0000.0001) ># nTy - No. threads per process in Y
(PID.TID 0000.0001) > &EEPARMS
(PID.TID 0000.0001) > &
(PID.TID 0000.0001) ># Note: Some systems use & as the
(PID.TID 0000.0001) ># namelist terminator. Other systems
(PID.TID 0000.0001) ># use a / character (as shown here).
(PID.TID 0000.0001) 
(PID.TID 0000.0001) // =======================================================
(PID.TID 0000.0001) // Computational Grid Specification ( see files "SIZE.h" )
(PID.TID 0000.0001) //                                  ( and "eedata"       )
(PID.TID 0000.0001) // =======================================================
(PID.TID 0000.0001)      nPx =    1 ; /* No. processes in X */
(PID.TID 0000.0001)      nPy =    1 ; /* No. processes in Y */
(PID.TID 0000.0001)      nSx =    1 ; /* No. tiles in X per process */
(PID.TID 0000.0001)      nSy =    1 ; /* No. tiles in Y per process */
(PID.TID 0000.0001)      sNx =    1 ; /* Tile size in X */
(PID.TID 0000.0001)      sNy =   64 ; /* Tile size in Y */
(PID.TID 0000.0001)      OLx =    5 ; /* Tile overlap distance in X */
(PID.TID 0000.0001)      OLy =    5 ; /* Tile overlap distance in Y */
(PID.TID 0000.0001)      nTx =    1 ; /* No. threads in X per process */
(PID.TID 0000.0001)      nTy =    1 ; /* No. threads in Y per process */
(PID.TID 0000.0001)       Nr =    5 ; /* No. levels in the vertical   */
(PID.TID 0000.0001)       nX =    1 ; /* Total domain size in X ( = nPx*nSx*sNx ) */
(PID.TID 0000.0001)       nY =   64 ; /* Total domain size in Y ( = nPy*nSy*sNy ) */
(PID.TID 0000.0001)   nTiles =    1 ; /* Total no. tiles per process ( = nSx*nSy ) */
(PID.TID 0000.0001)   nProcs =    1 ; /* Total no. processes ( = nPx*nPy ) */
(PID.TID 0000.0001) nThreads =    1 ; /* Total no. threads per process ( = nTx*nTy ) */
(PID.TID 0000.0001) usingMPI =    F ; /* Flag used to control whether MPI is in use */
(PID.TID 0000.0001)                   /*  note: To execute a program with MPI calls */
(PID.TID 0000.0001)                   /*  it must be launched appropriately e.g     */
(PID.TID 0000.0001)                   /*  "mpirun -np 64 ......"                    */
(PID.TID 0000.0001) 
(PID.TID 0000.0001) // ======================================================
(PID.TID 0000.0001) // Mapping of tiles to threads
(PID.TID 0000.0001) // ======================================================
(PID.TID 0000.0001) // -o- Thread   1, tiles (   1:   1,   1:   1)
(PID.TID 0000.0001) 
(PID.TID 0000.0001) // ======================================================
(PID.TID 0000.0001) // Tile <-> Tile connectvity table
(PID.TID 0000.0001) // ======================================================
(PID.TID 0000.0001) // Tile number: 000001 (process no. = 000001)
(PID.TID 0000.0001) //        WEST: Tile = 000001, Process = 000001, Comm = put
(PID.TID 0000.0001) //                bi = 000001, bj = 000001
(PID.TID 0000.0001) //        EAST: Tile = 000001, Process = 000001, Comm = put
(PID.TID 0000.0001) //                bi = 000001, bj = 000001
(PID.TID 0000.0001) //       SOUTH: Tile = 000001, Process = 000001, Comm = put
(PID.TID 0000.0001) //                bi = 000001, b  yC=  -88.59375000000000       -85.78125000000000     
   -82.96875000000000       -80.15625000000000       -77.34375000000000     
   -74.53125000000000       -71.71875000000000       -68.90625000000000     
   -66.09375000000000       -63.28125000000000       -60.46875000000000     
   -57.65625000000000       -54.84375000000000       -52.03125000000000     
   -49.21875000000000       -46.40625000000000       -43.59375000000000     
   -40.78125000000000       -37.96875000000000       -35.15625000000000     
   -32.34375000000000       -29.53125000000000       -26.71875000000000     
   -23.90625000000000       -21.09375000000000       -18.28125000000000     
   -15.46875000000000       -12.65625000000000       -9.843750000000000     
   -7.031250000000000       -4.218750000000000       -1.406250000000000     
    1.406250000000000        4.218750000000000        7.031250000000000     
    9.843750000000000        12.65625000000000        15.46875000000000     
    18.28125000000000        21.09375000000000        23.90625000000000     
    26.71875000000000        29.53125000000000        32.34375000000000     
    35.15625000000000        37.96875000000000        40.78125000000000     
    43.59375000000000        46.40625000000000        49.21875000000000     
    52.03125000000000        54.84375000000000        57.65625000000000     
    60.46875000000000        63.28125000000000        66.09375000000000     
    68.90625000000000        71.71875000000000        74.53125000000000     
    77.34375000000000        80.15625000000000        82.96875000000000     
    85.78125000000000        88.59375000000000     
 dxF=   7673.714381622298        23002.65649478360     
    38276.18319365421        53457.49921461356        68510.03143764105     
    83397.51699416523        98084.09062749070        112534.3710953429     
    126713.5464063795        140587.4576853274        154122.6814647045     
    167286.6102048804        180047.5308484964        192374.7012199971     
    204238.4240862251        215610.1186996563        226462.3896519241     
    236769.0928717577        246505.3986083400        255647.8512483520     
    264174.4258225996        272064.5810660936        279299.3089037566     
    285861.1802425402        291734.3869596373        296904.7799856344     
    301359.9033908587        305089.0243928044        308083.1592123453     
    310335.0947164461        311839.4057952310        312592.4684315491     
    312592.4684315491        311839.4057952310        310335.0947164461     
    308083.1592123453        305089.0243928044        301359.9033908587     
    296904.7799856344        291734.3869596373        285861.1802425402     
    279299.3089037566        272064.5810660936        264174.4258225996     
    255647.8512483520        246505.3986083400        236769.0928717577     
    226462.3896519241        215610.1186996563        204238.4240862251     
    192374.7012199971        180047.5308484964        167286.6102048804     
    154122.6814647045        140587.4576853274        126713.5464063795     
    112534.3710953429        98084.09062749070        83397.51699416523     
    68510.03143764105        53457.49921461356        38276.18319365421     
    23002.65649478360        7673.714381622298     
 dyF=   312686.6438026091        312686.6438026091     
    312686.6438026091        312686.6438026091        312686.6438026091     
    312686.6438026091        312686.6438026091        312686.6438026091     
    312686.6438026091        312686.6438026091        312686.6438026091     
    312686.6438026091        312686.6438026091        312686.6438026091     
    312686.6438026091        312686.6438026091        312686.6438026091     
    312686.6438026091        312686.6438026091        312686.6438026091     
    312686.6438026091        312686.6438026091        312686.6438026091     
    312686.6438026091        312686.6438026091        312686.6438026091     
    312686.6438026091        312686.6438026091        312686.6438026091     
    312686.6438026091        312686.6438026091        312686.6438026091     
    312686.6438026091        312686.6438026091        312686.6438026091     
    312686.6438026091        312686.6438026091        312686.6438026091     
    312686.6438026091        312686.6438026091        312686.6438026091     
    312686.6438026091        312686.6438026091        312686.6438026091     
    312686.6438026091        312686.6438026091        312686.6438026091     
    312686.6438026091        312686.6438026091        312686.6438026091     
    312686.6438026091        312686.6438026091        312686.6438026091     
    312686.6438026091        312686.6438026091        312686.6438026091     
    312686.6438026091        312686.6438026091        312686.6438026091     
    312686.6438026091        312686.6438026091        312686.6438026091     
    312686.6438026091        312686.6438026091     
 dxG=  1.9145902537803480E-011   15342.80640463982     
    30648.65064477965        45880.65960101153        61002.13802959343     
    75976.65696450579        90768.14147802141        105340.9575883663     
    119659.9981051027        133690.7672054259        147399.4635376230     
    160753.0616514898        173719.3915595329        186267.2162372875     
    198366.3068760452        209987.5157067021        221102.8462192875     
    231685.5206090085        241710.0442863275        251152.2672956614     
    259989.4424947395        268200.2803544621        275765.0002472408     
    282665.3781002625        288884.7902988777        294408.2537343438     
    299222.4618994463        303315.8169450409        306678.4576202870     
    309302.2830292655        311180.9721467461        312309.9990460912     
    312686.6438026091        312309.9990460912        311180.9721467461     
    309302.2830292655        306678.4576202870        303315.8169450409     
    299222.4618994463        294408.2537343438        288884.7902988777     
    282665.3781002625        275765.0002472408        268200.2803544621     
    259989.4424947395        251152.2672956614        241710.0442863275     
    231685.5206090085        221102.8462192875        209987.5157067021     
    198366.3068760452        186267.2162372875        173719.3915595329     
    160753.0616514898        147399.4635376230        133690.7672054259     
    119659.9981051027        105340.9575883663        90768.14147802141     
    75976.65696450579        61002.13802959343        45880.65960101153     
    30648.65064477965        15342.80640463982     
 dyG=   312686.6438026091        312686.6438026091     
    312686.6438026091        312686.6438026091        312686.6438026091     
    312686.6438026091        312686.6438026091        312686.6438026091     
    312686.6438026091        312686.6438026091        312686.6438026091     
    312686.6438026091        312686.6438026091        312686.6438026091     
    312686.6438026091        312686.6438026091        312686.6438026091     
    312686.6438026091        312686.6438026091        312686.6438026091     
    312686.6438026091        312686.6438026091        312686.6438026091     
    312686.6438026091        312686.6438026091        312686.6438026091     
    312686.6438026091        312686.6438026091        312686.6438026091     
    312686.6438026091        312686.6438026091        312686.6438026091     
    312686.6438026091        312686.6438026091        312686.6438026091     
    312686.6438026091        312686.6438026091        312686.6438026091     
    312686.6438026091        312686.6438026091        312686.6438026091     
    312686.6438026091        312686.6438026091        312686.6438026091     
    312686.6438026091        312686.6438026091        312686.6438026091     
    312686.6438026091        312686.6438026091        312686.6438026091     
    312686.6438026091        312686.6438026091        312686.6438026091     
    312686.6438026091        312686.6438026091        312686.6438026091     
    312686.6438026091        312686.6438026091        312686.6438026091     
    312686.6438026091        312686.6438026091        312686.6438026091     
    312686.6438026091        312686.6438026091     
 dxC=   7673.714381622298        23002.65649478360     
    38276.18319365421        53457.49921461356        68510.03143764105     
    83397.51699416523        98084.09062749070        112534.3710953429     
    126713.5464063795        140587.4576853274        154122.6814647045     
    167286.6102048804        180047.5308484964        192374.7012199971     
    204238.4240862251        215610.1186996563        226462.3896519241     
    236769.0928717577        246505.3986083400        255647.8512483520     
    264174.4258225996        272064.5810660936        279299.3089037566     
    285861.1802425402        291734.3869596373        296904.7799856344     
    301359.9033908587        305089.0243928044        308083.1592123453     
    310335.0947164461        311839.4057952310        312592.4684315491     
    312592.4684315491        311839.4057952310        310335.0947164461     
    308083.1592123453        305089.0243928044        301359.9033908587     
    296904.7799856344        291734.3869596373        285861.1802425402     
    279299.3089037566        272064.5810660936        264174.4258225996     
    255647.8512483520        246505.3986083400        236769.0928717577     
    226462.3896519241        215610.1186996563        204238.4240862251     
    192374.7012199971        180047.5308484964        167286.6102048804     
    154122.6814647045        140587.4576853274        126713.5464063795     
    112534.3710953429        98084.09062749070        83397.51699416523     
    68510.03143764105        53457.49921461356        38276.18319365421     
    23002.65649478360        7673.714381622298     
 dyC=   312686.6438026091        312686.6438026091     
    312686.6438026091        312686.6438026091        312686.6438026091     
    312686.6438026091        312686.6438026091        312686.6438026091     
    312686.6438026091        312686.6438026091        312686.6438026091     
    312686.6438026091        312686.6438026091        312686.6438026091     
    312686.6438026091        312686.6438026091        312686.6438026091     
    312686.6438026091        312686.6438026091        312686.6438026091     
    312686.6438026091        312686.6438026091        312686.6438026091     
    312686.6438026091        312686.6438026091        312686.6438026091     
    312686.6438026091        312686.6438026091        312686.6438026091     
    312686.6438026091        312686.6438026091        312686.6438026091     
    312686.6438026091        312686.6438026091        312686.6438026091     
    312686.6438026091        312686.6438026091        312686.6438026091     
    312686.6438026091        312686.6438026091        312686.6438026091     
    312686.6438026091        312686.6438026091        312686.6438026091     
    312686.6438026091        312686.6438026091        312686.6438026091     
    312686.6438026091        312686.6438026091        312686.6438026091     
    312686.6438026091        312686.6438026091        312686.6438026091     
    312686.6438026091        312686.6438026091        312686.6438026091     
    312686.6438026091        312686.6438026091        312686.6438026091     
    312686.6438026091        312686.6438026091        312686.6438026091     
    312686.6438026091        312686.6438026091     
 dxV=  1.9145902537803480E-011   15342.80640463982     
    30648.65064477965        45880.65960101153        61002.13802959343     
    75976.65696450579        90768.14147802141        105340.9575883663     
    119659.9981051027        133690.7672054259        147399.4635376230     
    160753.0616514898        173719.3915595329        186267.2162372875     
    198366.3068760452        209987.5157067021        221102.8462192875     
    231685.5206090085        241710.0442863275        251152.2672956614     
    259989.4424947395        268200.2803544621        275765.0002472408     
    282665.3781002625        288884.7902988777        294408.2537343438     
    299222.4618994463        303315.8169450409        306678.4576202870     
    309302.2830292655        311180.9721467461        312309.9990460912     
    312686.6438026091        312309.9990460912        311180.9721467461     
    309302.2830292655        306678.4576202870        303315.8169450409     
    299222.4618994463        294408.2537343438        288884.7902988777     
    282665.3781002625        275765.0002472408        268200.2803544621     
    259989.4424947395        251152.2672956614        241710.0442863275     
    231685.5206090085        221102.8462192875        209987.5157067021     
    198366.3068760452        186267.2162372875        173719.3915595329     
    160753.0616514898        147399.4635376230        133690.7672054259     
    119659.9981051027        105340.9575883663        90768.14147802141     
    75976.65696450579        61002.13802959343        45880.65960101153     
    30648.65064477965        15342.80640463982     
 dyU=   312686.6438026091        312686.6438026091     
    312686.6438026091        312686.6438026091        312686.6438026091     
    312686.6438026091        312686.6438026091        312686.6438026091     
    312686.6438026091        312686.6438026091        312686.6438026091     
    312686.6438026091        312686.6438026091        312686.6438026091     
    312686.6438026091        312686.6438026091        312686.6438026091     
    312686.6438026091        312686.6438026091        312686.6438026091     
    312686.6438026091        312686.6438026091        312686.6438026091     
    312686.6438026091        312686.6438026091        312686.6438026091     
    312686.6438026091        312686.6438026091        312686.6438026091     
    312686.6438026091        312686.6438026091        312686.6438026091     
    312686.6438026091        312686.6438026091        312686.6438026091     
    312686.6438026091        312686.6438026091        312686.6438026091     
    312686.6438026091        312686.6438026091        312686.6438026091     
    312686.6438026091        312686.6438026091        312686.6438026091     
    312686.6438026091        312686.6438026091        312686.6438026091     
    312686.6438026091        312686.6438026091        312686.6438026091     
    312686.6438026091        312686.6438026091        312686.6438026091     
    312686.6438026091        312686.6438026091        312686.6438026091     
    312686.6438026091        312686.6438026091        312686.6438026091     
    312686.6438026091        312686.6438026091        312686.6438026091     
    312686.6438026091        312686.6438026091     
  rA=   2399227099.019018        7191901348.828057     
    11967249678.35171        16713767855.19299        21420021101.31771     
    26074671640.43704        30666506011.70350        35184462083.91881     
    39617655705.17892        43955406923.74861        48187265717.00000     
    52303037166.43333        56292806018.12741        60146960569.45659     
    63856215824.52238        67411635862.52304        70804655365.16847     
    74027100251.28452        77071207368.88658        79929643197.29683     
    82595521514.23444        85062419985.33159        87324395636.09566     
    89375999169.05872        91212288091.61066        92828838622.89705     
    94221756351.09474        95387685615.39165        96323817590.06651     
    97027897051.19698        97498227809.69106        97733676797.55542     
    97733676797.55542        97498227809.69106        97027897051.19698     
    96323817590.06651        95387685615.39165        94221756351.09474     
    92828838622.89705        91212288091.61066        89375999169.05872     
    87324395636.09566        85062419985.33159        82595521514.23444     
    79929643197.29683        77071207368.88658        74027100251.28452     
    70804655365.16847        67411635862.52304        63856215824.52238     
    60146960569.45659        56292806018.12741        52303037166.43333     
    48187265717.00000        43955406923.74861        39617655705.17892     
    35184462083.91881        30666506011.70350        26074671640.43704     
    21420021101.31771        16713767855.19299        11967249678.35171     
    7191901348.828057        2399227099.019018     
 rAw=   2399227099.019018        7191901348.828057     
    11967249678.35171        16713767855.19299        21420021101.31771     
    26074671640.43704        30666506011.70350        35184462083.91881     
    39617655705.17892        43955406923.74861        48187265717.00000     
    52303037166.43333        56292806018.12741        60146960569.45659     
    63856215824.52238        67411635862.52304        70804655365.16847     
    74027100251.28452        77071207368.88658        79929643197.29683     
    82595521514.23444        85062419985.33159        87324395636.09566     
    89375999169.05872        91212288091.61066        92828838622.89705     
    94221756351.09474        95387685615.39165        96323817590.06651     
    97027897051.19698        97498227809.69106        97733676797.55542     
    97733676797.55542        97498227809.69106        97027897051.19698     
    96323817590.06651        95387685615.39165        94221756351.09474     
    92828838622.89705        91212288091.61066        89375999169.05872     
    87324395636.09566        85062419985.33159        82595521514.23444     
    79929643197.29683        77071207368.88658        74027100251.28452     
    70804655365.16847        67411635862.52304        63856215824.52238     
    60146960569.45659        56292806018.12741        52303037166.43333     
    48187265717.00000        43955406923.74861        39617655705.17892     
    35184462083.91881        30666506011.70350        26074671640.43704     
    21420021101.31771        16713767855.19299        11967249678.35171     
    7191901348.828057        2399227099.019018     
 rAs=  0.0000000000000000E+000   4797008993.346594     
    9582461571.859739        14344829161.12175        19072638800.47595     
    23754500782.39423        28379136091.27882        32935403575.60110     
    37412326787.90871        41799120428.05190        46085216325.91324     
    50260288901.05701        54314280037.95676        58237423316.87642     
    62020267542.02965        65653699510.34003        69128965965.94559     
    72437694687.55634        75571914657.87256        78524075266.45966     
    81287064499.83365        83854226074.92097        86219375474.63148     
    88376814846.89812        90321346731.30377        92048286580.21815     
    93553474044.28317        94833282995.05898        95884630260.68500     
    96704983053.51135        97292365071.80571        97645361260.83740     
    97763121221.86816        97645361260.83740        97292365071.80571     
    96704983053.51135        95884630260.68500        94833282995.05898     
    93553474044.28317        92048286580.21815        90321346731.30377     
    88376814846.89812        86219375474.63148        83854226074.92097     
    81287064499.83365        78524075266.45966        75571914657.87256     
    72437694687.55634        69128965965.94559        65653699510.34003     
    62020267542.02965        58237423316.87642        54314280037.95676     
    50260288901.05701        46085216325.91324        41799120428.05190     
    37412326787.90871        32935403575.60110        28379136091.27882     
    23754500782.39423        19072638800.47595        14344829161.12175     
    9582461571.859739        4797008993.346594     
j = 000001
(PID.TID 0000.0001) //       NORTH: Tile = 000001, Process = 000001, Comm = put
(PID.TID 0000.0001) //                bi = 000001, bj = 000001
(PID.TID 0000.0001) 
(PID.TID 0000.0001) // =======================================================
(PID.TID 0000.0001) // Model parameter file "data"
(PID.TID 0000.0001) // =======================================================
(PID.TID 0000.0001) ># ====================
(PID.TID 0000.0001) ># | Model parameters |
(PID.TID 0000.0001) ># ====================
(PID.TID 0000.0001) >#
(PID.TID 0000.0001) ># Continuous equation parameters
(PID.TID 0000.0001) > &PARM01
(PID.TID 0000.0001) > tRef=281.089, 289.321, 307.191, 331.377, 432.413,
(PID.TID 0000.0001) > sRef=5*0.,
(PID.TID 0000.0001) > viscAr=0.E1,
(PID.TID 0000.0001) > viscAh=0.E6,
(PID.TID 0000.0001) > viscA4=0.E17,
(PID.TID 0000.0001) > no_slip_sides=.FALSE.,
(PID.TID 0000.0001) > no_slip_bottom=.FALSE.,
(PID.TID 0000.0001) > diffKrT=0.,
(PID.TID 0000.0001) > diffK4T=1.E17,
(PID.TID 0000.0001) > diffKrS=0.E2,
(PID.TID 0000.0001) > diffKhS=1.E5,
(PID.TID 0000.0001) > diffK4S=0.E17,
(PID.TID 0000.0001) > buoyancyRelation='ATMOSPHERIC',
(PID.TID 0000.0001) > eosType='IDEALGAS',
(PID.TID 0000.0001) > gravity=9.81,
(PID.TID 0000.0001) > gBaro=9.81,
(PID.TID 0000.0001) > rhonil=1.0,
(PID.TID 0000.0001) > rhoConst=1.0,
(PID.TID 0000.0001) > rigidLid=.FALSE.,
(PID.TID 0000.0001) > implicitFreeSurface=.TRUE.,
(PID.TID 0000.0001) > staggerTimeStep=.TRUE.,
(PID.TID 0000.0001) > nonHydrostatic=.FALSE.,
(PID.TID 0000.0001) > readBinaryPrec=64,
(PID.TID 0000.0001) > writeBinaryPrec=64,
(PID.TID 0000.0001) > hFacMin=1.0,
(PID.TID 0000.0001) > nShap=4,
(PID.TID 0000.0001) > zonal_filt_lat=45.0,
(PID.TID 0000.0001) > zonal_filt_sinpow=2,
(PID.TID 0000.0001) > zonal_filt_cospow=4,
(PID.TID 0000.0001) > &
(PID.TID 0000.0001) >
(PID.TID 0000.0001) ># Elliptic solver parameters
(PID.TID 0000.0001) > &PARM02
(PID.TID 0000.0001) > cg2dMaxIters=600,
(PID.TID 0000.0001) > cg2dTargetResidual=1.E-17,
(PID.TID 0000.0001) > &
(PID.TID 0000.0001) >
(PID.TID 0000.0001) ># Time stepping parameters
(PID.TID 0000.0001) > &PARM03
(PID.TID 0000.0001) > niter0=0,
(PID.TID 0000.0001) > nTimeSteps=20,
(PID.TID 0000.0001) > deltaT=1200.0,
(PID.TID 0000.0001) > abEps=0.1,
(PID.TID 0000.0001) > cAdjFreq=0.,
(PID.TID 0000.0001) > pChkptFreq=2592000.0,
(PID.TID 0000.0001) > chkptFreq=0.0,
(PID.TID 0000.0001) > dumpFreq=2592000.0,
(PID.TID 0000.0001) > &
(PID.TID 0000.0001) >
(PID.TID 0000.0001) ># Gridding parameters
(PID.TID 0000.0001) > &PARM04
(PID.TID 0000.0001) > usingCartesianGrid=.FALSE.,
(PID.TID 0000.0001) > usingSphericalPolarGrid=.TRUE.,
(PID.TID 0000.0001) > delX=1*2.8125,
(PID.TID 0000.0001) > delY=64*2.8125,
(PID.TID 0000.0001) > delR=1.E4, 2.5E4, 3.E4, 2.E4, 1.5E4,
(PID.TID 0000.0001) > Ro_SeaLevel=1.E5,
(PID.TID 0000.0001) > groundAtK1=.TRUE.,
(PID.TID 0000.0001) > phiMin=-90.,
(PID.TID 0000.0001) > &
(PID.TID 0000.0001) >
(PID.TID 0000.0001) ># Input datasets
(PID.TID 0000.0001) > &PARM05
(PID.TID 0000.0001) > &
(PID.TID 0000.0001) 
(PID.TID 0000.0001) // =======================================================
(PID.TID 0000.0001) // Field Model depths (ini_depths) at iteration          1
(PID.TID 0000.0001) // CMIN =          1.000000000000000E+05
(PID.TID 0000.0001) // CMAX =          1.000000000000000E+05
(PID.TID 0000.0001) // CINT =          0.000000000000000E+00
(PID.TID 0000.0001) // SYMBOLS (CMIN->CMAX): -abcdefghijklmnopqrstuvwxyz+
(PID.TID 0000.0001) //                  0.0: .
(PID.TID 0000.0001) // RANGE I (Lo:Hi:Step):(  -4:   6:   1)
(PID.TID 0000.0001) // RANGE J (Lo:Hi:Step):(  69:  -4:  -1)
(PID.TID 0000.0001) // RANGE K (Lo:Hi:Step):(   1:   1:   1)
(PID.TID 0000.0001) // =======================================================
(PID.TID 0000.0001) K =   1
(PID.TID 0000.0001) //                I=5
(PID.TID 0000.0001) // |--J--|****01234|6
(PID.TID 0000.0001) //     69 ...........
(PID.TID 0000.0001) //     68 ...........
(PID.TID 0000.0001) //     67 ...........
(PID.TID 0000.0001) //     66 ...........
(PID.TID 0000.0001) //     65 ...........
(PID.TID 0000.0001) //     64 -----------
(PID.TID 0000.0001) //     63 -----------
(PID.TID 0000.0001) //     62 -----------
(PID.TID 0000.0001) //     61 -----------
(PID.TID 0000.0001) //     60 -----------
(PID.TID 0000.0001) //     59 -----------
(PID.TID 0000.0001) //     58 -----------
(PID.TID 0000.0001) //     57 -----------
(PID.TID 0000.0001) //     56 -----------
(PID.TID 0000.0001) //     55 -----------
(PID.TID 0000.0001) //     54 -----------
(PID.TID 0000.0001) //     53 -----------
(PID.TID 0000.0001) //     52 -----------
(PID.TID 0000.0001) //     51 -----------
(PID.TID 0000.0001) //     50 -----------
(PID.TID 0000.0001) //     49 -----------
(PID.TID 0000.0001) //     48 -----------
(PID.TID 0000.0001) //     47 -----------
(PID.TID 0000.0001) //     46 -----------
(PID.TID 0000.0001) //     45 -----------
(PID.TID 0000.0001) //     44 -----------
(PID.TID 0000.0001) //     43 -----------
(PID.TID 0000.0001) //     42 -----------
(PID.TID 0000.0001) //     41 -----------
(PID.TID 0000.0001) //     40 -----------
(PID.TID 0000.0001) //     39 -----------
(PID.TID 0000.0001) //     38 -----------
(PID.TID 0000.0001) //     37 -----------
(PID.TID 0000.0001) //     36 -----------
(PID.TID 0000.0001) //     35 -----------
(PID.TID 0000.0001) //     34 -----------
(PID.TID 0000.0001) //     33 -----------
(PID.TID 0000.0001) //     32 -----------
(PID.TID 0000.0001) //     31 -----------
(PID.TID 0000.0001) //     30 -----------
(PID.TID 0000.0001) //     29 -----------
(PID.TID 0000.0001) //     28 -----------
(PID.TID 0000.0001) //     27 -----------
(PID.TID 0000.0001) //     26 -----------
(PID.TID 0000.0001) //     25 -----------
(PID.TID 0000.0001) //     24 -----------
(PID.TID 0000.0001) //     23 -----------
(PID.TID 0000.0001) //     22 -----------
(PID.TID 0000.0001) //     21 -----------
(PID.TID 0000.0001) //     20 -----------
(PID.TID 0000.0001) //     19 -----------
(PID.TID 0000.0001) //     18 -----------
(PID.TID 0000.0001) //     17 -----------
(PID.TID 0000.0001) //     16 -----------
(PID.TID 0000.0001) //     15 -----------
(PID.TID 0000.0001) //     14 -----------
(PID.TID 0000.0001) //     13 -----------
(PID.TID 0000.0001) //     12 -----------
(PID.TID 0000.0001) //     11 -----------
(PID.TID 0000.0001) //     10 -----------
(PID.TID 0000.0001) //      9 -----------
(PID.TID 0000.0001) //      8 -----------
(PID.TID 0000.0001) //      7 -----------
(PID.TID 0000.0001) //      6 -----------
(PID.TID 0000.0001) //      5 -----------
(PID.TID 0000.0001) //      4 -----------
(PID.TID 0000.0001) //      3 -----------
(PID.TID 0000.0001) //      2 -----------
(PID.TID 0000.0001) //      1 -----------
(PID.TID 0000.0001) //      0 ...........
(PID.TID 0000.0001) //     -1 ...........
(PID.TID 0000.0001) //     -2 ...........
(PID.TID 0000.0001) //     -3 ...........
(PID.TID 0000.0001) //     -4 ...........
(PID.TID 0000.0001) // =======================================================
(PID.TID 0000.0001) // END OF FIELD                                          =
(PID.TID 0000.0001) // =======================================================
(PID.TID 0000.0001) 
(PID.TID 0000.0001) // =======================================================
(PID.TID 0000.0001) // Field Model Depths K Index at iteration          1
(PID.TID 0000.0001) // CMIN =          5.000000000000000E+00
(PID.TID 0000.0001) // CMAX =          5.000000000000000E+00
(PID.TID 0000.0001) // CINT =          0.000000000000000E+00
(PID.TID 0000.0001) // SYMBOLS (CMIN->CMAX): -abcdefghijklmnopqrstuvwxyz+
(PID.TID 0000.0001) //                  0.0: .
(PID.TID 0000.0001) // RANGE I (Lo:Hi:Step):(  -4:   6:   1)
(PID.TID 0000.0001) // RANGE J (Lo:Hi:Step):(  69:  -4:  -1)
(PID.TID 0000.0001) // RANGE K (Lo:Hi:Step):(   1:   1:   1)
(PID.TID 0000.0001) // =======================================================
(PID.TID 0000.0001) K =   1
(PID.TID 0000.0001) //                I=5
(PID.TID 0000.0001) // |--J--|****01234|6
(PID.TID 0000.0001) //     69 ...........
(PID.TID 0000.0001) //     68 ...........
(PID.TID 0000.0001) //     67 ...........
(PID.TID 0000.0001) //     66 ...........
(PID.TID 0000.0001) //     65 ...........
(PID.TID 0000.0001) //     64 -----------
(PID.TID 0000.0001) //     63 -----------
(PID.TID 0000.0001) //     62 -----------
(PID.TID 0000.0001) //     61 -----------
(PID.TID 0000.0001) //     60 -----------
(PID.TID 0000.0001) //     59 -----------
(PID.TID 0000.0001) //     58 -----------
(PID.TID 0000.0001) //     57 -----------
(PID.TID 0000.0001) //     56 -----------
(PID.TID 0000.0001) //     55 -----------
(PID.TID 0000.0001) //     54 -----------
(PID.TID 0000.0001) //     53 -----------
(PID.TID 0000.0001) //     52 -----------
(PID.TID 0000.0001) //     51 -----------
(PID.TID 0000.0001) //     50 -----------
(PID.TID 0000.0001) //     49 -----------
(PID.TID 0000.0001) //     48 -----------
(PID.TID 0000.0001) //     47 -----------
(PID.TID 0000.0001) //     46 -----------
(PID.TID 0000.0001) //     45 -----------
(PID.TID 0000.0001) //     44 -----------
(PID.TID 0000.0001) //     43 -----------
(PID.TID 0000.0001) //     42 -----------
(PID.TID 0000.0001) //     41 -----------
(PID.TID 0000.0001) //     40 -----------
(PID.TID 0000.0001) //     39 -----------
(PID.TID 0000.0001) //     38 -----------
(PID.TID 0000.0001) //     37 -----------
(PID.TID 0000.0001) //     36 -----------
(PID.TID 0000.0001) //     35 -----------
(PID.TID 0000.0001) //     34 -----------
(PID.TID 0000.0001) //     33 -----------
(PID.TID 0000.0001) //     32 -----------
(PID.TID 0000.0001) //     31 -----------
(PID.TID 0000.0001) //     30 -----------
(PID.TID 0000.0001) //     29 -----------
(PID.TID 0000.0001) //     28 -----------
(PID.TID 0000.0001) //     27 -----------
(PID.TID 0000.0001) //     26 -----------
(PID.TID 0000.0001) //     25 -----------
(PID.TID 0000.0001) //     24 -----------
(PID.TID 0000.0001) //     23 -----------
(PID.TID 0000.0001) //     22 -----------
(PID.TID 0000.0001) //     21 -----------
(PID.TID 0000.0001) //     20 -----------
(PID.TID 0000.0001) //     19 -----------
(PID.TID 0000.0001) //     18 -----------
(PID.TID 0000.0001) //     17 -----------
(PID.TID 0000.0001) //     16 -----------
(PID.TID 0000.0001) //     15 -----------
(PID.TID 0000.0001) //     14 -----------
(PID.TID 0000.0001) //     13 -----------
(PID.TID 0000.0001) //     12 -----------
(PID.TID 0000.0001) //     11 -----------
(PID.TID 0000.0001) //     10 -----------
(PID.TID 0000.0001) //      9 -----------
(PID.TID 0000.0001) //      8 -----------
(PID.TID 0000.0001) //      7 -----------
(PID.TID 0000.0001) //      6 -----------
(PID.TID 0000.0001) //      5 -----------
(PID.TID 0000.0001) //      4 -----------
(PID.TID 0000.0001) //      3 -----------
(PID.TID 0000.0001) //      2 -----------
(PID.TID 0000.0001) //      1 -----------
(PID.TID 0000.0001) //      0 ...........
(PID.TID 0000.0001) //     -1 ...........
(PID.TID 0000.0001) //     -2 ...........
(PID.TID 0000.0001) //     -3 ...........
(PID.TID 0000.0001) //     -4 ...........
(PID.TID 0000.0001) // =======================================================
(PID.TID 0000.0001) // END OF FIELD                                          =
(PID.TID 0000.0001) // =======================================================
(PID.TID 0000.0001) 
(PID.TID 0000.0001) // =======================================================
(PID.TID 0000.0001) // Field Model depths (ini_masks_etc) at iteration          1
(PID.TID 0000.0001) // CMIN =          1.000000000000000E+05
(PID.TID 0000.0001) // CMAX =          1.000000000000000E+05
(PID.TID 0000.0001) // CINT =          0.000000000000000E+00
(PID.TID 0000.0001) // SYMBOLS (CMIN->CMAX): -abcdefghijklmnopqrstuvwxyz+
(PID.TID 0000.0001) //                  0.0: .
(PID.TID 0000.0001) // RANGE I (Lo:Hi:Step):(  -4:   6:   1)
(PID.TID 0000.0001) // RANGE J (Lo:Hi:Step):(  69:  -4:  -1)
(PID.TID 0000.0001) // RANGE K (Lo:Hi:Step):(   1:   1:   1)
(PID.TID 0000.0001) // =======================================================
(PID.TID 0000.0001) K =   1
(PID.TID 0000.0001) //                I=5
(PID.TID 0000.0001) // |--J--|****01234|6
(PID.TID 0000.0001) //     69 ...........
(PID.TID 0000.0001) //     68 ...........
(PID.TID 0000.0001) //     67 ...........
(PID.TID 0000.0001) //     66 ...........
(PID.TID 0000.0001) //     65 ...........
(PID.TID 0000.0001) //     64 -----------
(PID.TID 0000.0001) //     63 -----------
(PID.TID 0000.0001) //     62 -----------
(PID.TID 0000.0001) //     61 -----------
(PID.TID 0000.0001) //     60 -----------
(PID.TID 0000.0001) //     59 -----------
(PID.TID 0000.0001) //     58 -----------
(PID.TID 0000.0001) //     57 -----------
(PID.TID 0000.0001) //     56 -----------
(PID.TID 0000.0001) //     55 -----------
(PID.TID 0000.0001) //     54 -----------
(PID.TID 0000.0001) //     53 -----------
(PID.TID 0000.0001) //     52 -----------
(PID.TID 0000.0001) //     51 -----------
(PID.TID 0000.0001) //     50 -----------
(PID.TID 0000.0001) //     49 -----------
(PID.TID 0000.0001) //     48 -----------
(PID.TID 0000.0001) //     47 -----------
(PID.TID 0000.0001) //     46 -----------
(PID.TID 0000.0001) //     45 -----------
(PID.TID 0000.0001) //     44 -----------
(PID.TID 0000.0001) //     43 -----------
(PID.TID 0000.0001) //     42 -----------
(PID.TID 0000.0001) //     41 -----------
(PID.TID 0000.0001) //     40 -----------
(PID.TID 0000.0001) //     39 -----------
(PID.TID 0000.0001) //     38 -----------
(PID.TID 0000.0001) //     37 -----------
(PID.TID 0000.0001) //     36 -----------
(PID.TID 0000.0001) //     35 -----------
(PID.TID 0000.0001) //     34 -----------
(PID.TID 0000.0001) //     33 -----------
(PID.TID 0000.0001) //     32 -----------
(PID.TID 0000.0001) //     31 -----------
(PID.TID 0000.0001) //     30 -----------
(PID.TID 0000.0001) //     29 -----------
(PID.TID 0000.0001) //     28 -----------
(PID.TID 0000.0001) //     27 -----------
(PID.TID 0000.0001) //     26 -----------
(PID.TID 0000.0001) //     25 -----------
(PID.TID 0000.0001) //     24 -----------
(PID.TID 0000.0001) //     23 -----------
(PID.TID 0000.0001) //     22 -----------
(PID.TID 0000.0001) //     21 -----------
(PID.TID 0000.0001) //     20 -----------
(PID.TID 0000.0001) //     19 -----------
(PID.TID 0000.0001) //     18 -----------
(PID.TID 0000.0001) //     17 -----------
(PID.TID 0000.0001) //     16 -----------
(PID.TID 0000.0001) //     15 -----------
(PID.TID 0000.0001) //     14 -----------
(PID.TID 0000.0001) //     13 -----------
(PID.TID 0000.0001) //     12 -----------
(PID.TID 0000.0001) //     11 -----------
(PID.TID 0000.0001) //     10 -----------
(PID.TID 0000.0001) //      9 -----------
(PID.TID 0000.0001) //      8 -----------
(PID.TID 0000.0001) //      7 -----------
(PID.TID 0000.0001) //      6 -----------
(PID.TID 0000.0001) //      5 -----------
(PID.TID 0000.0001) //      4 -----------
(PID.TID 0000.0001) //      3 -----------
(PID.TID 0000.0001) //      2 -----------
(PID.TID 0000.0001) //      1 -----------
(PID.TID 0000.0001) //      0 ...........
(PID.TID 0000.0001) //     -1 ...........
(PID.TID 0000.0001) //     -2 ...........
(PID.TID 0000.0001) //     -3 ...........
(PID.TID 0000.0001) //     -4 ...........
(PID.TID 0000.0001) // =======================================================
(PID.TID 0000.0001) // END OF FIELD                                          =
(PID.TID 0000.0001) // =======================================================
(PID.TID 0000.0001) 
(PID.TID 0000.0001) // =======================================================
(PID.TID 0000.0001) // Field hFacC at iteration          1
(PID.TID 0000.0001) // CMIN =          1.000000000000000E+00
(PID.TID 0000.0001) // CMAX =          1.000000000000000E+00
(PID.TID 0000.0001) // CINT =          0.000000000000000E+00
(PID.TID 0000.0001) // SYMBOLS (CMIN->CMAX): -abcdefghijklmnopqrstuvwxyz+
(PID.TID 0000.0001) //                  0.0: .
(PID.TID 0000.0001) // RANGE I (Lo:Hi:Step):(  -4:   6:   1)
(PID.TID 0000.0001) // RANGE J (Lo:Hi:Step):(  69:  -4:  -1)
(PID.TID 0000.0001) // RANGE K (Lo:Hi:Step):(   1:   1:   1)
(PID.TID 0000.0001) // =======================================================
(PID.TID 0000.0001) K =   1
(PID.TID 0000.0001) //                I=5
(PID.TID 0000.0001) // |--J--|****01234|6
(PID.TID 0000.0001) //     69 ...........
(PID.TID 0000.0001) //     68 ...........
(PID.TID 0000.0001) //     67 ...........
(PID.TID 0000.0001) //     66 ...........
(PID.TID 0000.0001) //     65 ...........
(PID.TID 0000.0001) //     64 -----------
(PID.TID 0000.0001) //     63 -----------
(PID.TID 0000.0001) //     62 -----------
(PID.TID 0000.0001) //     61 -----------
(PID.TID 0000.0001) //     60 -----------
(PID.TID 0000.0001) //     59 -----------
(PID.TID 0000.0001) //     58 -----------
(PID.TID 0000.0001) //     57 -----------
(PID.TID 0000.0001) //     56 -----------
(PID.TID 0000.0001) //     55 -----------
(PID.TID 0000.0001) //     54 -----------
(PID.TID 0000.0001) //     53 -----------
(PID.TID 0000.0001) //     52 -----------
(PID.TID 0000.0001) //     51 -----------
(PID.TID 0000.0001) //     50 -----------
(PID.TID 0000.0001) //     49 -----------
(PID.TID 0000.0001) //     48 -----------
(PID.TID 0000.0001) //     47 -----------
(PID.TID 0000.0001) //     46 -----------
(PID.TID 0000.0001) //     45 -----------
(PID.TID 0000.0001) //     44 -----------
(PID.TID 0000.0001) //     43 -----------
(PID.TID 0000.0001) //     42 -----------
(PID.TID 0000.0001) //     41 -----------
(PID.TID 0000.0001) //     40 -----------
(PID.TID 0000.0001) //     39 -----------
(PID.TID 0000.0001) //     38 -----------
(PID.TID 0000.0001) //     37 -----------
(PID.TID 0000.0001) //     36 -----------
(PID.TID 0000.0001) //     35 -----------
(PID.TID 0000.0001) //     34 -----------
(PID.TID 0000.0001) //     33 -----------
(PID.TID 0000.0001) //     32 -----------
(PID.TID 0000.0001) //     31 -----------
(PID.TID 0000.0001) //     30 -----------
(PID.TID 0000.0001) //     29 -----------
(PID.TID 0000.0001) //     28 -----------
(PID.TID 0000.0001) //     27 -----------
(PID.TID 0000.0001) //     26 -----------
(PID.TID 0000.0001) //     25 -----------
(PID.TID 0000.0001) //     24 -----------
(PID.TID 0000.0001) //     23 -----------
(PID.TID 0000.0001) //     22 -----------
(PID.TID 0000.0001) //     21 -----------
(PID.TID 0000.0001) //     20 -----------
(PID.TID 0000.0001) //     19 -----------
(PID.TID 0000.0001) //     18 -----------
(PID.TID 0000.0001) //     17 -----------
(PID.TID 0000.0001) //     16 -----------
(PID.TID 0000.0001) //     15 -----------
(PID.TID 0000.0001) //     14 -----------
(PID.TID 0000.0001) //     13 -----------
(PID.TID 0000.0001) //     12 -----------
(PID.TID 0000.0001) //     11 -----------
(PID.TID 0000.0001) //     10 -----------
(PID.TID 0000.0001) //      9 -----------
(PID.TID 0000.0001) //      8 -----------
(PID.TID 0000.0001) //      7 -----------
(PID.TID 0000.0001) //      6 -----------
(PID.TID 0000.0001) //      5 -----------
(PID.TID 0000.0001) //      4 -----------
(PID.TID 0000.0001) //      3 -----------
(PID.TID 0000.0001) //      2 -----------
(PID.TID 0000.0001) //      1 -----------
(PID.TID 0000.0001) //      0 ...........
(PID.TID 0000.0001) //     -1 ...........
(PID.TID 0000.0001) //     -2 ...........
(PID.TID 0000.0001) //     -3 ...........
(PID.TID 0000.0001) //     -4 ...........
(PID.TID 0000.0001) // =======================================================
(PID.TID 0000.0001) // END OF FIELD                                          =
(PID.TID 0000.0001) // =======================================================
(PID.TID 0000.0001) 
(PID.TID 0000.0001) // =======================================================
(PID.TID 0000.0001) // Field hFacW at iteration          1
(PID.TID 0000.0001) // CMIN =          1.000000000000000E+00
(PID.TID 0000.0001) // CMAX =          1.000000000000000E+00
(PID.TID 0000.0001) // CINT =          0.000000000000000E+00
(PID.TID 0000.0001) // SYMBOLS (CMIN->CMAX): -abcdefghijklmnopqrstuvwxyz+
(PID.TID 0000.0001) //                  0.0: .
(PID.TID 0000.0001) // RANGE I (Lo:Hi:Step):(  -4:   6:   1)
(PID.TID 0000.0001) // RANGE J (Lo:Hi:Step):(  69:  -4:  -1)
(PID.TID 0000.0001) // RANGE K (Lo:Hi:Step):(   1:   1:   1)
(PID.TID 0000.0001) // =======================================================
(PID.TID 0000.0001) K =   1
(PID.TID 0000.0001) //                I=5
(PID.TID 0000.0001) // |--J--|****01234|6
(PID.TID 0000.0001) //     69 -..........
(PID.TID 0000.0001) //     68 -..........
(PID.TID 0000.0001) //     67 -..........
(PID.TID 0000.0001) //     66 -..........
(PID.TID 0000.0001) //     65 -..........
(PID.TID 0000.0001) //     64 -----------
(PID.TID 0000.0001) //     63 -----------
(PID.TID 0000.0001) //     62 -----------
(PID.TID 0000.0001) //     61 -----------
(PID.TID 0000.0001) //     60 -----------
(PID.TID 0000.0001) //     59 -----------
(PID.TID 0000.0001) //     58 -----------
(PID.TID 0000.0001) //     57 -----------
(PID.TID 0000.0001) //     56 -----------
(PID.TID 0000.0001) //     55 -----------
(PID.TID 0000.0001) //     54 -----------
(PID.TID 0000.0001) //     53 -----------
(PID.TID 0000.0001) //     52 -----------
(PID.TID 0000.0001) //     51 -----------
(PID.TID 0000.0001) //     50 -----------
(PID.TID 0000.0001) //     49 -----------
(PID.TID 0000.0001) //     48 -----------
(PID.TID 0000.0001) //     47 -----------
(PID.TID 0000.0001) //     46 -----------
(PID.TID 0000.0001) //     45 -----------
(PID.TID 0000.0001) //     44 -----------
(PID.TID 0000.0001) //     43 -----------
(PID.TID 0000.0001) //     42 -----------
(PID.TID 0000.0001) //     41 -----------
(PID.TID 0000.0001) //     40 -----------
(PID.TID 0000.0001) //     39 -----------
(PID.TID 0000.0001) //     38 -----------
(PID.TID 0000.0001) //     37 -----------
(PID.TID 0000.0001) //     36 -----------
(PID.TID 0000.0001) //     35 -----------
(PID.TID 0000.0001) //     34 -----------
(PID.TID 0000.0001) //     33 -----------
(PID.TID 0000.0001) //     32 -----------
(PID.TID 0000.0001) //     31 -----------
(PID.TID 0000.0001) //     30 -----------
(PID.TID 0000.0001) //     29 -----------
(PID.TID 0000.0001) //     28 -----------
(PID.TID 0000.0001) //     27 -----------
(PID.TID 0000.0001) //     26 -----------
(PID.TID 0000.0001) //     25 -----------
(PID.TID 0000.0001) //     24 -----------
(PID.TID 0000.0001) //     23 -----------
(PID.TID 0000.0001) //     22 -----------
(PID.TID 0000.0001) //     21 -----------
(PID.TID 0000.0001) //     20 -----------
(PID.TID 0000.0001) //     19 -----------
(PID.TID 0000.0001) //     18 -----------
(PID.TID 0000.0001) //     17 -----------
(PID.TID 0000.0001) //     16 -----------
(PID.TID 0000.0001) //     15 -----------
(PID.TID 0000.0001) //     14 -----------
(PID.TID 0000.0001) //     13 -----------
(PID.TID 0000.0001) //     12 -----------
(PID.TID 0000.0001) //     11 -----------
(PID.TID 0000.0001) //     10 -----------
(PID.TID 0000.0001) //      9 -----------
(PID.TID 0000.0001) //      8 -----------
(PID.TID 0000.0001) //      7 -----------
(PID.TID 0000.0001) //      6 -----------
(PID.TID 0000.0001) //      5 -----------
(PID.TID 0000.0001) //      4 -----------
(PID.TID 0000.0001) //      3 -----------
(PID.TID 0000.0001) //      2 -----------
(PID.TID 0000.0001) //      1 -----------
(PID.TID 0000.0001) //      0 -..........
(PID.TID 0000.0001) //     -1 -..........
(PID.TID 0000.0001) //     -2 -..........
(PID.TID 0000.0001) //     -3 -..........
(PID.TID 0000.0001) //     -4 -..........
(PID.TID 0000.0001) // =======================================================
(PID.TID 0000.0001) // END OF FIELD                                          =
(PID.TID 0000.0001) // =======================================================
(PID.TID 0000.0001) 
(PID.TID 0000.0001) // =======================================================
(PID.TID 0000.0001) // Field hFacS at iteration          1
(PID.TID 0000.0001) // CMIN =          1.000000000000000E+00
(PID.TID 0000.0001) // CMAX =          1.000000000000000E+00
(PID.TID 0000.0001) // CINT =          0.000000000000000E+00
(PID.TID 0000.0001) // SYMBOLS (CMIN->CMAX): -abcdefghijklmnopqrstuvwxyz+
(PID.TID 0000.0001) //                  0.0: .
(PID.TID 0000.0001) // RANGE I (Lo:Hi:Step):(  -4:   6:   1)
(PID.TID 0000.0001) // RANGE J (Lo:Hi:Step):(  69:  -4:  -1)
(PID.TID 0000.0001) // RANGE K (Lo:Hi:Step):(   1:   1:   1)
(PID.TID 0000.0001) // =======================================================
(PID.TID 0000.0001) K =   1
(PID.TID 0000.0001) //                I=5
(PID.TID 0000.0001) // |--J--|****01234|6
(PID.TID 0000.0001) //     69 ...........
(PID.TID 0000.0001) //     68 ...........
(PID.TID 0000.0001) //     67 ...........
(PID.TID 0000.0001) //     66 ...........
(PID.TID 0000.0001) //     65 ...........
(PID.TID 0000.0001) //     64 -----------
(PID.TID 0000.0001) //     63 -----------
(PID.TID 0000.0001) //     62 -----------
(PID.TID 0000.0001) //     61 -----------
(PID.TID 0000.0001) //     60 -----------
(PID.TID 0000.0001) //     59 -----------
(PID.TID 0000.0001) //     58 -----------
(PID.TID 0000.0001) //     57 -----------
(PID.TID 0000.0001) //     56 -----------
(PID.TID 0000.0001) //     55 -----------
(PID.TID 0000.0001) //     54 -----------
(PID.TID 0000.0001) //     53 -----------
(PID.TID 0000.0001) //     52 -----------
(PID.TID 0000.0001) //     51 -----------
(PID.TID 0000.0001) //     50 -----------
(PID.TID 0000.0001) //     49 -----------
(PID.TID 0000.0001) //     48 -----------
(PID.TID 0000.0001) //     47 -----------
(PID.TID 0000.0001) //     46 -----------
(PID.TID 0000.0001) //     45 -----------
(PID.TID 0000.0001) //     44 -----------
(PID.TID 0000.0001) //     43 -----------
(PID.TID 0000.0001) //     42 -----------
(PID.TID 0000.0001) //     41 -----------
(PID.TID 0000.0001) //     40 -----------
(PID.TID 0000.0001) //     39 -----------
(PID.TID 0000.0001) //     38 -----------
(PID.TID 0000.0001) //     37 -----------
(PID.TID 0000.0001) //     36 -----------
(PID.TID 0000.0001) //     35 -----------
(PID.TID 0000.0001) //     34 -----------
(PID.TID 0000.0001) //     33 -----------
(PID.TID 0000.0001) //     32 -----------
(PID.TID 0000.0001) //     31 -----------
(PID.TID 0000.0001) //     30 -----------
(PID.TID 0000.0001) //     29 -----------
(PID.TID 0000.0001) //     28 -----------
(PID.TID 0000.0001) //     27 -----------
(PID.TID 0000.0001) //     26 -----------
(PID.TID 0000.0001) //     25 -----------
(PID.TID 0000.0001) //     24 -----------
(PID.TID 0000.0001) //     23 -----------
(PID.TID 0000.0001) //     22 -----------
(PID.TID 0000.0001) //     21 -----------
(PID.TID 0000.0001) //     20 -----------
(PID.TID 0000.0001) //     19 -----------
(PID.TID 0000.0001) //     18 -----------
(PID.TID 0000.0001) //     17 -----------
(PID.TID 0000.0001) //     16 -----------
(PID.TID 0000.0001) //     15 -----------
(PID.TID 0000.0001) //     14 -----------
(PID.TID 0000.0001) //     13 -----------
(PID.TID 0000.0001) //     12 -----------
(PID.TID 0000.0001) //     11 -----------
(PID.TID 0000.0001) //     10 -----------
(PID.TID 0000.0001) //      9 -----------
(PID.TID 0000.0001) //      8 -----------
(PID.TID 0000.0001) //      7 -----------
(PID.TID 0000.0001) //      6 -----------
(PID.TID 0000.0001) //      5 -----------
(PID.TID 0000.0001) //      4 -----------
(PID.TID 0000.0001) //      3 -----------
(PID.TID 0000.0001) //      2 -----------
(PID.TID 0000.0001) //      1 ...........
(PID.TID 0000.0001) //      0 ...........
(PID.TID 0000.0001) //     -1 ...........
(PID.TID 0000.0001) //     -2 ...........
(PID.TID 0000.0001) //     -3 ...........
(PID.TID 0000.0001) //     -4 -----------
(PID.TID 0000.0001) // =======================================================
(PID.TID 0000.0001) // END OF FIELD                                          =
(PID.TID 0000.0001) // =======================================================
(PID.TID 0000.0001) 
(PID.TID 0000.0001)  PACKAGE_INIT: opening data.pkg
(PID.TID 0000.0001)  OPEN_COPY_DATA_FILE: opening file data.pkg
(PID.TID 0000.0001) // =======================================================
(PID.TID 0000.0001) // Parameter file "data.pkg"
(PID.TID 0000.0001) // =======================================================
(PID.TID 0000.0001) ># Packages
(PID.TID 0000.0001) > &PACKAGES
(PID.TID 0000.0001) > useAIM=.TRUE.
(PID.TID 0000.0001) > &
(PID.TID 0000.0001) 
(PID.TID 0000.0001)  PACKAGE_INIT: finished reading data.pkg
(PID.TID 0000.0001) // CG2D normalisation factor =          0.2501654283681167700000000E-07
(PID.TID 0000.0001) 
(PID.TID 0000.0001) // =======================================================
(PID.TID 0000.0001) // Model configuration
(PID.TID 0000.0001) // =======================================================
(PID.TID 0000.0001) //
(PID.TID 0000.0001) // "Physical" paramters ( PARM01 in namelist )
(PID.TID 0000.0001) //
(PID.TID 0000.0001) tRef =   /* Reference temperature profile ( oC or oK ) */
(PID.TID 0000.0001)                 2.810890000000000E+02,      /* K =  1 */
(PID.TID 0000.0001)                 2.893210000000000E+02,      /* K =  2 */
(PID.TID 0000.0001)                 3.071910000000000E+02,      /* K =  3 */
(PID.TID 0000.0001)                 3.313770000000000E+02,      /* K =  4 */
(PID.TID 0000.0001)                 4.324130000000000E+02       /* K =  5 */
(PID.TID 0000.0001)     ;
(PID.TID 0000.0001) sRef =   /* Reference salinity profile ( ppt ) */
(PID.TID 0000.0001)     5 @  0.000000000000000E+00              /* K =  1:  5 */
(PID.TID 0000.0001)     ;
(PID.TID 0000.0001) viscAh =   /* Lateral eddy viscosity ( m^2/s ) */
(PID.TID 0000.0001)                 0.000000000000000E+00
(PID.TID 0000.0001)     ;
(PID.TID 0000.0001) viscAh =   /* Lateral biharmonic viscosity ( m^4/s ) */
(PID.TID 0000.0001)                 0.000000000000000E+00
(PID.TID 0000.0001)     ;
(PID.TID 0000.0001) no_slip_sides =  /* Viscous BCs: No-slip sides */
(PID.TID 0000.0001)                   F
(PID.TID 0000.0001)     ;
(PID.TID 0000.0001) viscAr =   /* Vertical eddy viscosity ( units of r^2/s ) */
(PID.TID 0000.0001)                 0.000000000000000E+00
(PID.TID 0000.0001)     ;
(PID.TID 0000.0001) diffKhT =   /* Laplacian diffusion of heat laterally ( m^2/s ) */
(PID.TID 0000.0001)                 0.000000000000000E+00
(PID.TID 0000.0001)     ;
(PID.TID 0000.0001) diffK4T =   /* Bihaarmonic diffusion of heat laterally ( m^4/s ) */
(PID.TID 0000.0001)                 1.000000000000000E+17
(PID.TID 0000.0001)     ;
(PID.TID 0000.0001) diffKzT =   /* Laplacian diffusion of heat vertically ( m^2/s ) */
(PID.TID 0000.0001)                 1.234567000000000E+05
(PID.TID 0000.0001)     ;
(PID.TID 0000.0001) diffKrT =   /* Laplacian diffusion of heat vertically ( m^2/s ) */
(PID.TID 0000.0001)                 0.000000000000000E+00
(PID.TID 0000.0001)     ;
(PID.TID 0000.0001) diffKhS =   /* Laplacian diffusion of salt laterally ( m^2/s ) */
(PID.TID 0000.0001)                 1.000000000000000E+05
(PID.TID 0000.0001)     ;
(PID.TID 0000.0001) diffK4S =   /* Bihaarmonic diffusion of salt laterally ( m^4/s ) */
(PID.TID 0000.0001)                 0.000000000000000E+00
(PID.TID 0000.0001)     ;
(PID.TID 0000.0001) diffKzS =   /* Laplacian diffusion of salt vertically ( m^2/s ) */
(PID.TID 0000.0001)                 1.234567000000000E+05
(PID.TID 0000.0001)     ;
(PID.TID 0000.0001) diffKrS =   /* Laplacian diffusion of salt vertically ( m^2/s ) */
(PID.TID 0000.0001)                 0.000000000000000E+00
(PID.TID 0000.0001)     ;
(PID.TID 0000.0001) tAlpha =   /* Linear EOS thermal expansion coefficient ( 1/degree ) */
(PID.TID 0000.0001)                 2.000000000000000E-04
(PID.TID 0000.0001)     ;
(PID.TID 0000.0001) sBeta =   /* Linear EOS haline contraction coefficient ( 1/ppt ) */
(PID.TID 0000.0001)                 7.400000000000001E-04
(PID.TID 0000.0001)     ;
(PID.TID 0000.0001) rhonil =   /* Reference density ( kg/m^3 ) */
(PID.TID 0000.0001)                 1.000000000000000E+00
(PID.TID 0000.0001)     ;
(PID.TID 0000.0001) rhoConst =   /* Reference density ( kg/m^3 ) */
(PID.TID 0000.0001)                 1.000000000000000E+00
(PID.TID 0000.0001)     ;
(PID.TID 0000.0001) gravity =   /* Gravitational acceleration ( m/s^2 ) */
(PID.TID 0000.0001)                 9.810000000000001E+00
(PID.TID 0000.0001)     ;
(PID.TID 0000.0001) gBaro =   /* Barotropic gravity ( m/s^2 ) */
(PID.TID 0000.0001)                 9.810000000000001E+00
(PID.TID 0000.0001)     ;
(PID.TID 0000.0001) f0 =   /* Reference coriolis parameter ( 1/s ) */
(PID.TID 0000.0001)                 1.000000000000000E-04
(PID.TID 0000.0001)     ;
(PID.TID 0000.0001) beta =   /* Beta ( 1/(m.s) ) */
(PID.TID 0000.0001)                 9.999999999999998E-12
(PID.TID 0000.0001)     ;
(PID.TID 0000.0001) freeSurfFac =   /* Implcit free surface factor */
(PID.TID 0000.0001)                 1.000000000000000E+00
(PID.TID 0000.0001)     ;
(PID.TID 0000.0001) implicitFreeSurface =   /* Implicit free surface on/off flag */
(PID.TID 0000.0001)                   T
(PID.TID 0000.0001)     ;
(PID.TID 0000.0001) rigidLid =   /* Rigid lid on/off flag */
(PID.TID 0000.0001)                   F
(PID.TID 0000.0001)     ;
(PID.TID 0000.0001) momStepping =  /* Momentum equation on/off flag */
(PID.TID 0000.0001)                   T
(PID.TID 0000.0001)     ;
(PID.TID 0000.0001) momAdvection =  /* Momentum advection on/off flag */
(PID.TID 0000.0001)                   T
(PID.TID 0000.0001)     ;
(PID.TID 0000.0001) momViscosity =  /* Momentum viscosity on/off flag */
(PID.TID 0000.0001)                   T
(PID.TID 0000.0001)     ;
(PID.TID 0000.0001) useCoriolis =  /* Coriolis on/off flag */
(PID.TID 0000.0001)                   T
(PID.TID 0000.0001)     ;
(PID.TID 0000.0001) momForcing =  /* Momentum forcing on/off flag */
(PID.TID 0000.0001)                   T
(PID.TID 0000.0001)     ;
(PID.TID 0000.0001) momPressureForcing =  /* Momentum pressure term on/off flag */
(PID.TID 0000.0001)                   T
(PID.TID 0000.0001)     ;
(PID.TID 0000.0001) tempStepping =  /* Temperature equation on/off flag */
(PID.TID 0000.0001)                   T
(PID.TID 0000.0001)     ;
(PID.TID 0000.0001) nonHydrostatic =  /* Non-Hydrostatic on/off flag */
(PID.TID 0000.0001)                   F
(PID.TID 0000.0001)     ;
(PID.TID 0000.0001) //
(PID.TID 0000.0001) // Elliptic solver(s) paramters ( PARM02 in namelist )
(PID.TID 0000.0001) //
(PID.TID 0000.0001) cg2dMaxIters =   /* Upper limit on 2d con. grad iterations  */
(PID.TID 0000.0001)                     600
(PID.TID 0000.0001)     ;
(PID.TID 0000.0001) cg2dChkResFreq =   /* 2d con. grad convergence test frequency */
(PID.TID 0000.0001)                       1
(PID.TID 0000.0001)     ;
(PID.TID 0000.0001) cg2dTargetResidual =   /* 2d con. grad target residual  */
(PID.TID 0000.0001)                 1.000000000000001E-17
(PID.TID 0000.0001)     ;
(PID.TID 0000.0001) //
(PID.TID 0000.0001) // Time stepping paramters ( PARM03 in namelist )
(PID.TID 0000.0001) //
(PID.TID 0000.0001) nIter0 =   /* Base timestep number  */
(PID.TID 0000.0001)                       0
(PID.TID 0000.0001)     ;
(PID.TID 0000.0001) nTimeSteps =   /* Number of timesteps */
(PID.TID 0000.0001)                      20
(PID.TID 0000.0001)     ;
(PID.TID 0000.0001) deltatTmom =   /* Momentum equation timestep ( s ) */
(PID.TID 0000.0001)                 1.200000000000000E+03
(PID.TID 0000.0001)     ;
(PID.TID 0000.0001) deltatTtracer =   /* Tracer equation timestep ( s ) */
(PID.TID 0000.0001)                 1.200000000000000E+03
(PID.TID 0000.0001)     ;
(PID.TID 0000.0001) deltatTClock  =   /* Model clock timestep ( s ) */
(PID.TID 0000.0001)                 1.200000000000000E+03
(PID.TID 0000.0001)     ;
(PID.TID 0000.0001) cAdjFreq =   /* Convective adjustment interval ( s ) */
(PID.TID 0000.0001)                 0.000000000000000E+00
(PID.TID 0000.0001)     ;
(PID.TID 0000.0001) abeps =   /* Adams-Bashforth stabilizing weight */
(PID.TID 0000.0001)                 1.000000000000000E-01
(PID.TID 0000.0001)     ;
(PID.TID 0000.0001) tauCD =   /* CD coupling time-scale ( s ) */
(PID.TID 0000.0001)                 1.200000000000000E+03
(PID.TID 0000.0001)     ;
(PID.TID 0000.0001) rCD =   /* Normalised CD coupling parameter */
(PID.TID 0000.0001)                 0.000000000000000E+00
(PID.TID 0000.0001)     ;
(PID.TID 0000.0001) startTime =   /* Run start time ( s ). */
(PID.TID 0000.0001)                 0.000000000000000E+00
(PID.TID 0000.0001)     ;
(PID.TID 0000.0001) endTime =   /* Integration ending time ( s ). */
(PID.TID 0000.0001)                 2.400000000000000E+04
(PID.TID 0000.0001)     ;
(PID.TID 0000.0001) pChkPtFreq =   /* Permanent restart/checkpoint file interval ( s ). */
(PID.TID 0000.0001)                 2.592000000000000E+06
(PID.TID 0000.0001)     ;
(PID.TID 0000.0001) chkPtFreq =   /* Rolling restart/checkpoint file interval ( s ). */
(PID.TID 0000.0001)                 0.000000000000000E+00
(PID.TID 0000.0001)     ;
(PID.TID 0000.0001) dumpFreq =   /* Model state write out interval ( s ). */
(PID.TID 0000.0001)                 2.592000000000000E+06
(PID.TID 0000.0001)     ;
(PID.TID 0000.0001) //
(PID.TID 0000.0001) // Gridding paramters ( PARM04 in namelist )
(PID.TID 0000.0001) //
(PID.TID 0000.0001) usingCartesianGrid =   /* Cartesian coordinates flag ( True / False ) */
(PID.TID 0000.0001)                   F
(PID.TID 0000.0001)     ;
(PID.TID 0000.0001) usingSphericalPolarGrid =   /* Spherical coordinates flag ( True / False ) */
(PID.TID 0000.0001)                   T
(PID.TID 0000.0001)     ;
(PID.TID 0000.0001) groundAtK1 =   /* Lower Boundary (ground) at the surface(k=1) ( T / F ) */
(PID.TID 0000.0001)                   T
(PID.TID 0000.0001)     ;
(PID.TID 0000.0001) Ro_SeaLevel =   /* r(1) ( units of r ) */
(PID.TID 0000.0001)                 1.000000000000000E+05
(PID.TID 0000.0001)     ;
(PID.TID 0000.0001) rkFac =   /* minus Vertical index orientation  */
(PID.TID 0000.0001)                 1.000000000000000E+00
(PID.TID 0000.0001)     ;
(PID.TID 0000.0001) horiVertRatio =   /* Ratio on units : Horiz - Vertical */
(PID.TID 0000.0001)                 9.810000000000001E+00
(PID.TID 0000.0001)     ;
(PID.TID 0000.0001) delZ =    /* W spacing ( m ) */
(PID.TID 0000.0001)     5 @  1.234567000000000E+05              /* K =  1:  5 */
(PID.TID 0000.0001)     ;
(PID.TID 0000.0001) delP =    /* W spacing ( Pa ) */
(PID.TID 0000.0001)     5 @  1.234567000000000E+05              /* K =  1:  5 */
(PID.TID 0000.0001)     ;
(PID.TID 0000.0001) delR =    /* W spacing ( units of r ) */
(PID.TID 0000.0001)                 1.000000000000000E+04,      /* K =  1 */
(PID.TID 0000.0001)                 2.500000000000000E+04,      /* K =  2 */
(PID.TID 0000.0001)                 3.000000000000000E+04,      /* K =  3 */
(PID.TID 0000.0001)                 2.000000000000000E+04,      /* K =  4 */
(PID.TID 0000.0001)                 1.500000000000000E+04       /* K =  5 */
(PID.TID 0000.0001)     ;
(PID.TID 0000.0001) delX =    /* U spacing ( m - cartesian, degrees - spherical ) */
(PID.TID 0000.0001)                 2.812500000000000E+00       /* I =  1 */
(PID.TID 0000.0001)     ;
(PID.TID 0000.0001) delY =    /* V spacing ( m - cartesian, degrees - spherical ) */
(PID.TID 0000.0001)    64 @  2.812500000000000E+00              /* J =  1: 64 */
(PID.TID 0000.0001)     ;
(PID.TID 0000.0001) phiMin =    /* South edge (ignored - cartesian, degrees - spherical ) */
(PID.TID 0000.0001)                -9.000000000000000E+01
(PID.TID 0000.0001)     ;
(PID.TID 0000.0001) thetaMin =    /* West edge ( ignored - cartesian, degrees - spherical ) */
(PID.TID 0000.0001)                 0.000000000000000E+00
(PID.TID 0000.0001)     ;
(PID.TID 0000.0001) rSphere =    /* Radius ( ignored - cartesian, m - spherical ) */
(PID.TID 0000.0001)                 6.370000000000000E+06
(PID.TID 0000.0001)     ;
(PID.TID 0000.0001) xcoord =    /* P-point X coord ( m - cartesian, degrees - spherical ) */
(PID.TID 0000.0001)                 1.406250000000000E+00       /* I =  1 */
(PID.TID 0000.0001)     ;
(PID.TID 0000.0001) ycoord =    /* P-point Y coord ( m - cartesian, degrees - spherical ) */
(PID.TID 0000.0001)                -8.859375000000000E+01,      /* J =  1 */
(PID.TID 0000.0001)                -8.578125000000000E+01,      /* J =  2 */
(PID.TID 0000.0001)                -8.296875000000000E+01,      /* J =  3 */
(PID.TID 0000.0001)                -8.015625000000000E+01,      /* J =  4 */
(PID.TID 0000.0001)                -7.734375000000000E+01,      /* J =  5 */
(PID.TID 0000.0001)                -7.453125000000000E+01,      /* J =  6 */
(PID.TID 0000.0001)                -7.171875000000000E+01,      /* J =  7 */
(PID.TID 0000.0001)                -6.890625000000000E+01,      /* J =  8 */
(PID.TID 0000.0001)                -6.609375000000000E+01,      /* J =  9 */
(PID.TID 0000.0001)                -6.328125000000000E+01,      /* J = 10 */
(PID.TID 0000.0001)                -6.046875000000000E+01,      /* J = 11 */
(PID.TID 0000.0001)                -5.765625000000000E+01,      /* J = 12 */
(PID.TID 0000.0001)                -5.484375000000000E+01,      /* J = 13 */
(PID.TID 0000.0001)                -5.203125000000000E+01,      /* J = 14 */
(PID.TID 0000.0001)                -4.921875000000000E+01,      /* J = 15 */
(PID.TID 0000.0001)                -4.640625000000000E+01,      /* J = 16 */
(PID.TID 0000.0001)                -4.359375000000000E+01,      /* J = 17 */
(PID.TID 0000.0001)                -4.078125000000000E+01,      /* J = 18 */
(PID.TID 0000.0001)                -3.796875000000000E+01,      /* J = 19 */
(PID.TID 0000.0001)                -3.515625000000000E+01,      /* J = 20 */
(PID.TID 0000.0001)                -3.234375000000000E+01,      /* J = 21 */
(PID.TID 0000.0001)                -2.953125000000000E+01,      /* J = 22 */
(PID.TID 0000.0001)                -2.671875000000000E+01,      /* J = 23 */
(PID.TID 0000.0001)                -2.390625000000000E+01,      /* J = 24 */
(PID.TID 0000.0001)                -2.109375000000000E+01,      /* J = 25 */
(PID.TID 0000.0001)                -1.828125000000000E+01,      /* J = 26 */
(PID.TID 0000.0001)                -1.546875000000000E+01,      /* J = 27 */
(PID.TID 0000.0001)                -1.265625000000000E+01,      /* J = 28 */
(PID.TID 0000.0001)                -9.843750000000000E+00,      /* J = 29 */
(PID.TID 0000.0001)                -7.031250000000000E+00,      /* J = 30 */
(PID.TID 0000.0001)                -4.218750000000000E+00,      /* J = 31 */
(PID.TID 0000.0001)                -1.406250000000000E+00,      /* J = 32 */
(PID.TID 0000.0001)                 1.406250000000000E+00,      /* J = 33 */
(PID.TID 0000.0001)                 4.218750000000000E+00,      /* J = 34 */
(PID.TID 0000.0001)                 7.031250000000000E+00,      /* J = 35 */
(PID.TID 0000.0001)                 9.843750000000000E+00,      /* J = 36 */
(PID.TID 0000.0001)                 1.265625000000000E+01,      /* J = 37 */
(PID.TID 0000.0001)                 1.546875000000000E+01,      /* J = 38 */
(PID.TID 0000.0001)                 1.828125000000000E+01,      /* J = 39 */
(PID.TID 0000.0001)                 2.109375000000000E+01,      /* J = 40 */
(PID.TID 0000.0001)                 2.390625000000000E+01,      /* J = 41 */
(PID.TID 0000.0001)                 2.671875000000000E+01,      /* J = 42 */
(PID.TID 0000.0001)                 2.953125000000000E+01,      /* J = 43 */
(PID.TID 0000.0001)                 3.234375000000000E+01,      /* J = 44 */
(PID.TID 0000.0001)                 3.515625000000000E+01,      /* J = 45 */
(PID.TID 0000.0001)                 3.796875000000000E+01,      /* J = 46 */
(PID.TID 0000.0001)                 4.078125000000000E+01,      /* J = 47 */
(PID.TID 0000.0001)                 4.359375000000000E+01,      /* J = 48 */
(PID.TID 0000.0001)                 4.640625000000000E+01,      /* J = 49 */
(PID.TID 0000.0001)                 4.921875000000000E+01,      /* J = 50 */
(PID.TID 0000.0001)                 5.203125000000000E+01,      /* J = 51 */
(PID.TID 0000.0001)                 5.484375000000000E+01,      /* J = 52 */
(PID.TID 0000.0001)                 5.765625000000000E+01,      /* J = 53 */
(PID.TID 0000.0001)                 6.046875000000000E+01,      /* J = 54 */
(PID.TID 0000.0001)                 6.328125000000000E+01,      /* J = 55 */
(PID.TID 0000.0001)                 6.609375000000000E+01,      /* J = 56 */
(PID.TID 0000.0001)                 6.890625000000000E+01,      /* J = 57 */
(PID.TID 0000.0001)                 7.171875000000000E+01,      /* J = 58 */
(PID.TID 0000.0001)                 7.453125000000000E+01,      /* J = 59 */
(PID.TID 0000.0001)                 7.734375000000000E+01,      /* J = 60 */
(PID.TID 0000.0001)                 8.015625000000000E+01,      /* J = 61 */
(PID.TID 0000.0001)                 8.296875000000000E+01,      /* J = 62 */
(PID.TID 0000.0001)                 8.578125000000000E+01,      /* J = 63 */
(PID.TID 0000.0001)                 8.859375000000000E+01       /* J = 64 */
(PID.TID 0000.0001)     ;
(PID.TID 0000.0001) rcoord =    /* P-point R coordinate (  units of r ) */
(PID.TID 0000.0001)                 9.500000000000000E+04,      /* K =  1 */
(PID.TID 0000.0001)                 7.750000000000000E+04,      /* K =  2 */
(PID.TID 0000.0001)                 5.000000000000000E+04,      /* K =  3 */
(PID.TID 0000.0001)                 2.500000000000000E+04,      /* K =  4 */
(PID.TID 0000.0001)                 7.500000000000000E+03       /* K =  5 */
(PID.TID 0000.0001)     ;
(PID.TID 0000.0001) 
(PID.TID 0000.0001) // =======================================================
(PID.TID 0000.0001) // Field Initial Temperature at iteration          1
(PID.TID 0000.0001) // CMIN =          2.550364452389422E+02
(PID.TID 0000.0001) // CMAX =          3.154764877049333E+02
(PID.TID 0000.0001) // CINT =          2.238520091333006E+00
(PID.TID 0000.0001) // SYMBOLS (CMIN->CMAX): -abcdefghijklmnopqrstuvwxyz+
(PID.TID 0000.0001) //                  0.0: .
(PID.TID 0000.0001) // RANGE I (Lo:Hi:Step):(   1:   1:   1)
(PID.TID 0000.0001) // RANGE J (Lo:Hi:Step):(  64:   1:  -1)
(PID.TID 0000.0001) // RANGE K (Lo:Hi:Step):(   1:   1:   1)
(PID.TID 0000.0001) // =======================================================
(PID.TID 0000.0001) K =   1
(PID.TID 0000.0001) 
(PID.TID 0000.0001) |--J--|1
(PID.TID 0000.0001)     64 -
(PID.TID 0000.0001)     63 -
(PID.TID 0000.0001)     62 -
(PID.TID 0000.0001)     61 a
(PID.TID 0000.0001)     60 a
(PID.TID 0000.0001)     59 b
(PID.TID 0000.0001)     58 c
(PID.TID 0000.0001)     57 c
(PID.TID 0000.0001)     56 d
(PID.TID 0000.0001)     55 e
(PID.TID 0000.0001)     54 g
(PID.TID 0000.0001)     53 h
(PID.TID 0000.0001)     52 i
(PID.TID 0000.0001)     51 j
(PID.TID 0000.0001)     50 l
(PID.TID 0000.0001)     49 m
(PID.TID 0000.0001)     48 n
(PID.TID 0000.0001)     47 o
(PID.TID 0000.0001)     46 q
(PID.TID 0000.0001)     45 r
(PID.TID 0000.0001)     44 s
(PID.TID 0000.0001)     43 t
(PID.TID 0000.0001)     42 v
(PID.TID 0000.0001)     41 w
(PID.TID 0000.0001)     40 x
(PID.TID 0000.0001)     39 x
(PID.TID 0000.0001)     38 y
(PID.TID 0000.0001)     37 z
(PID.TID 0000.0001)     36 z
(PID.TID 0000.0001)     35 +
(PID.TID 0000.0001)     34 +
(PID.TID 0000.0001)     33 +
(PID.TID 0000.0001)     32 +
(PID.TID 0000.0001)     31 +
(PID.TID 0000.0001)     30 +
(PID.TID 0000.0001)     29 z
(PID.TID 0000.0001)     28 z
(PID.TID 0000.0001)     27 y
(PID.TID 0000.0001)     26 x
(PID.TID 0000.0001)     25 x
(PID.TID 0000.0001)     24 w
(PID.TID 0000.0001)     23 v
(PID.TID 0000.0001)     22 t
(PID.TID 0000.0001)     21 s
(PID.TID 0000.0001)     20 r
(PID.TID 0000.0001)     19 q
(PID.TID 0000.0001)     18 o
(PID.TID 0000.0001)     17 n
(PID.TID 0000.0001)     16 m
(PID.TID 0000.0001)     15 l
(PID.TID 0000.0001)     14 j
(PID.TID 0000.0001)     13 i
(PID.TID 0000.0001)     12 h
(PID.TID 0000.0001)     11 g
(PID.TID 0000.0001)     10 e
(PID.TID 0000.0001)      9 d
(PID.TID 0000.0001)      8 c
(PID.TID 0000.0001)      7 c
(PID.TID 0000.0001)      6 b
(PID.TID 0000.0001)      5 a
(PID.TID 0000.0001)      4 a
(PID.TID 0000.0001)      3 -
(PID.TID 0000.0001)      2 -
(PID.TID 0000.0001)      1 -
(PID.TID 0000.0001) // =======================================================
(PID.TID 0000.0001) // END OF FIELD                                          =
(PID.TID 0000.0001) // =======================================================
(PID.TID 0000.0001) 
(PID.TID 0000.0001) // =======================================================
(PID.TID 0000.0001) // Field Initial Salinity at iteration          1
(PID.TID 0000.0001) // CMIN =          1.000000000000000E+32
(PID.TID 0000.0001) // CMAX =         -1.000000000000000E+32
(PID.TID 0000.0001) // CINT =          0.000000000000000E+00
(PID.TID 0000.0001) // SYMBOLS (CMIN->CMAX): -abcdefghijklmnopqrstuvwxyz+
(PID.TID 0000.0001) //                  0.0: .
(PID.TID 0000.0001) // RANGE I (Lo:Hi:Step):(   1:   1:   1)
(PID.TID 0000.0001) // RANGE J (Lo:Hi:Step):(  64:   1:  -1)
(PID.TID 0000.0001) // RANGE K (Lo:Hi:Step):(   1:   1:   1)
(PID.TID 0000.0001) // =======================================================
(PID.TID 0000.0001) K =   1
(PID.TID 0000.0001) 
(PID.TID 0000.0001) |--J--|1
(PID.TID 0000.0001)     64 .
(PID.TID 0000.0001)     63 .
(PID.TID 0000.0001)     62 .
(PID.TID 0000.0001)     61 .
(PID.TID 0000.0001)     60 .
(PID.TID 0000.0001)     59 .
(PID.TID 0000.0001)     58 .
(PID.TID 0000.0001)     57 .
(PID.TID 0000.0001)     56 .
(PID.TID 0000.0001)     55 .
(PID.TID 0000.0001)     54 .
(PID.TID 0000.0001)     53 .
(PID.TID 0000.0001)     52 .
(PID.TID 0000.0001)     51 .
(PID.TID 0000.0001)     50 .
(PID.TID 0000.0001)     49 .
(PID.TID 0000.0001)     48 .
(PID.TID 0000.0001)     47 .
(PID.TID 0000.0001)     46 .
(PID.TID 0000.0001)     45 .
(PID.TID 0000.0001)     44 .
(PID.TID 0000.0001)     43 .
(PID.TID 0000.0001)     42 .
(PID.TID 0000.0001)     41 .
(PID.TID 0000.0001)     40 .
(PID.TID 0000.0001)     39 .
(PID.TID 0000.0001)     38 .
(PID.TID 0000.0001)     37 .
(PID.TID 0000.0001)     36 .
(PID.TID 0000.0001)     35 .
(PID.TID 0000.0001)     34 .
(PID.TID 0000.0001)     33 .
(PID.TID 0000.0001)     32 .
(PID.TID 0000.0001)     31 .
(PID.TID 0000.0001)     30 .
(PID.TID 0000.0001)     29 .
(PID.TID 0000.0001)     28 .
(PID.TID 0000.0001)     27 .
(PID.TID 0000.0001)     26 .
(PID.TID 0000.0001)     25 .
(PID.TID 0000.0001)     24 .
(PID.TID 0000.0001)     23 .
(PID.TID 0000.0001)     22 .
(PID.TID 0000.0001)     21 .
(PID.TID 0000.0001)     20 .
(PID.TID 0000.0001)     19 .
(PID.TID 0000.0001)     18 .
(PID.TID 0000.0001)     17 .
(PID.TID 0000.0001)     16 .
(PID.TID 0000.0001)     15 .
(PID.TID 0000.0001)     14 .
(PID.TID 0000.0001)     13 .
(PID.TID 0000.0001)     12 .
(PID.TID 0000.0001)     11 .
(PID.TID 0000.0001)     10 .
(PID.TID 0000.0001)      9 .
(PID.TID 0000.0001)      8 .
(PID.TID 0000.0001)      7 .
(PID.TID 0000.0001)      6 .
(PID.TID 0000.0001)      5 .
(PID.TID 0000.0001)      4 .
(PID.TID 0000.0001)      3 .
(PID.TID 0000.0001)      2 .
(PID.TID 0000.0001)      1 .
(PID.TID 0000.0001) // =======================================================
(PID.TID 0000.0001) // END OF FIELD                                          =
(PID.TID 0000.0001) // =======================================================
(PID.TID 0000.0001) 
(PID.TID 0000.0001) // =======================================================
(PID.TID 0000.0001) // Model current state
(PID.TID 0000.0001) // =======================================================
(PID.TID 0000.0001) 
(PID.TID 0000.0001) // =======================================================
(PID.TID 0000.0001) // Field Current uVel   at iteration          0
(PID.TID 0000.0001) // CMIN =          1.000000000000000E+32
(PID.TID 0000.0001) // CMAX =         -1.000000000000000E+32
(PID.TID 0000.0001) // CINT =          0.000000000000000E+00
(PID.TID 0000.0001) // SYMBOLS (CMIN->CMAX): -abcdefghijklmnopqrstuvwxyz+
(PID.TID 0000.0001) //                  0.0: .
(PID.TID 0000.0001) // RANGE I (Lo:Hi:Step):(   1:   1:   1)
(PID.TID 0000.0001) // RANGE J (Lo:Hi:Step):(  64:   1:  -1)
(PID.TID 0000.0001) // RANGE K (Lo:Hi:Step):(   1:   1:   1)
(PID.TID 0000.0001) // =======================================================
(PID.TID 0000.0001) K =   1
(PID.TID 0000.0001) 
(PID.TID 0000.0001) |--J--|1
(PID.TID 0000.0001)     64 .
(PID.TID 0000.0001)     63 .
(PID.TID 0000.0001)     62 .
(PID.TID 0000.0001)     61 .
(PID.TID 0000.0001)     60 .
(PID.TID 0000.0001)     59 .
(PID.TID 0000.0001)     58 .
(PID.TID 0000.0001)     57 .
(PID.TID 0000.0001)     56 .
(PID.TID 0000.0001)     55 .
(PID.TID 0000.0001)     54 .
(PID.TID 0000.0001)     53 .
(PID.TID 0000.0001)     52 .
(PID.TID 0000.0001)     51 .
(PID.TID 0000.0001)     50 .
(PID.TID 0000.0001)     49 .
(PID.TID 0000.0001)     48 .
(PID.TID 0000.0001)     47 .
(PID.TID 0000.0001)     46 .
(PID.TID 0000.0001)     45 .
(PID.TID 0000.0001)     44 .
(PID.TID 0000.0001)     43 .
(PID.TID 0000.0001)     42 .
(PID.TID 0000.0001)     41 .
(PID.TID 0000.0001)     40 .
(PID.TID 0000.0001)     39 .
(PID.TID 0000.0001)     38 .
(PID.TID 0000.0001)     37 .
(PID.TID 0000.0001)     36 .
(PID.TID 0000.0001)     35 .
(PID.TID 0000.0001)     34 .
(PID.TID 0000.0001)     33 .
(PID.TID 0000.0001)     32 .
(PID.TID 0000.0001)     31 .
(PID.TID 0000.0001)     30 .
(PID.TID 0000.0001)     29 .
(PID.TID 0000.0001)     28 .
(PID.TID 0000.0001)     27 .
(PID.TID 0000.0001)     26 .
(PID.TID 0000.0001)     25 .
(PID.TID 0000.0001)     24 .
(PID.TID 0000.0001)     23 .
(PID.TID 0000.0001)     22 .
(PID.TID 0000.0001)     21 .
(PID.TID 0000.0001)     20 .
(PID.TID 0000.0001)     19 .
(PID.TID 0000.0001)     18 .
(PID.TID 0000.0001)     17 .
(PID.TID 0000.0001)     16 .
(PID.TID 0000.0001)     15 .
(PID.TID 0000.0001)     14 .
(PID.TID 0000.0001)     13 .
(PID.TID 0000.0001)     12 .
(PID.TID 0000.0001)     11 .
(PID.TID 0000.0001)     10 .
(PID.TID 0000.0001)      9 .
(PID.TID 0000.0001)      8 .
(PID.TID 0000.0001)      7 .
(PID.TID 0000.0001)      6 .
(PID.TID 0000.0001)      5 .
(PID.TID 0000.0001)      4 .
(PID.TID 0000.0001)      3 .
(PID.TID 0000.0001)      2 .
(PID.TID 0000.0001)      1 .
(PID.TID 0000.0001) // =======================================================
(PID.TID 0000.0001) // END OF FIELD                                          =
(PID.TID 0000.0001) // =======================================================
(PID.TID 0000.0001) 
(PID.TID 0000.0001) // =======================================================
(PID.TID 0000.0001) // Field Current vVel   at iteration          0
(PID.TID 0000.0001) // CMIN =          1.000000000000000E+32
(PID.TID 0000.0001) // CMAX =         -1.000000000000000E+32
(PID.TID 0000.0001) // CINT =          0.000000000000000E+00
(PID.TID 0000.0001) // SYMBOLS (CMIN->CMAX): -abcdefghijklmnopqrstuvwxyz+
(PID.TID 0000.0001) //                  0.0: .
(PID.TID 0000.0001) // RANGE I (Lo:Hi:Step):(   1:   1:   1)
(PID.TID 0000.0001) // RANGE J (Lo:Hi:Step):(  64:   1:  -1)
(PID.TID 0000.0001) // RANGE K (Lo:Hi:Step):(   1:   1:   1)
(PID.TID 0000.0001) // =======================================================
(PID.TID 0000.0001) K =   1
(PID.TID 0000.0001) 
(PID.TID 0000.0001) |--J--|1
(PID.TID 0000.0001)     64 .
(PID.TID 0000.0001)     63 .
(PID.TID 0000.0001)     62 .
(PID.TID 0000.0001)     61 .
(PID.TID 0000.0001)     60 .
(PID.TID 0000.0001)     59 .
(PID.TID 0000.0001)     58 .
(PID.TID 0000.0001)     57 .
(PID.TID 0000.0001)     56 .
(PID.TID 0000.0001)     55 .
(PID.TID 0000.0001)     54 .
(PID.TID 0000.0001)     53 .
(PID.TID 0000.0001)     52 .
(PID.TID 0000.0001)     51 .
(PID.TID 0000.0001)     50 .
(PID.TID 0000.0001)     49 .
(PID.TID 0000.0001)     48 .
(PID.TID 0000.0001)     47 .
(PID.TID 0000.0001)     46 .
(PID.TID 0000.0001)     45 .
(PID.TID 0000.0001)     44 .
(PID.TID 0000.0001)     43 .
(PID.TID 0000.0001)     42 .
(PID.TID 0000.0001)     41 .
(PID.TID 0000.0001)     40 .
(PID.TID 0000.0001)     39 .
(PID.TID 0000.0001)     38 .
(PID.TID 0000.0001)     37 .
(PID.TID 0000.0001)     36 .
(PID.TID 0000.0001)     35 .
(PID.TID 0000.0001)     34 .
(PID.TID 0000.0001)     33 .
(PID.TID 0000.0001)     32 .
(PID.TID 0000.0001)     31 .
(PID.TID 0000.0001)     30 .
(PID.TID 0000.0001)     29 .
(PID.TID 0000.0001)     28 .
(PID.TID 0000.0001)     27 .
(PID.TID 0000.0001)     26 .
(PID.TID 0000.0001)     25 .
(PID.TID 0000.0001)     24 .
(PID.TID 0000.0001)     23 .
(PID.TID 0000.0001)     22 .
(PID.TID 0000.0001)     21 .
(PID.TID 0000.0001)     20 .
(PID.TID 0000.0001)     19 .
(PID.TID 0000.0001)     18 .
(PID.TID 0000.0001)     17 .
(PID.TID 0000.0001)     16 .
(PID.TID 0000.0001)     15 .
(PID.TID 0000.0001)     14 .
(PID.TID 0000.0001)     13 .
(PID.TID 0000.0001)     12 .
(PID.TID 0000.0001)     11 .
(PID.TID 0000.0001)     10 .
(PID.TID 0000.0001)      9 .
(PID.TID 0000.0001)      8 .
(PID.TID 0000.0001)      7 .
(PID.TID 0000.0001)      6 .
(PID.TID 0000.0001)      5 .
(PID.TID 0000.0001)      4 .
(PID.TID 0000.0001)      3 .
(PID.TID 0000.0001)      2 .
(PID.TID 0000.0001)      1 .
(PID.TID 0000.0001) // =======================================================
(PID.TID 0000.0001) // END OF FIELD                                          =
(PID.TID 0000.0001) // =======================================================
(PID.TID 0000.0001) 
(PID.TID 0000.0001) // =======================================================
(PID.TID 0000.0001) // Field Current theta  at iteration          0
(PID.TID 0000.0001) // CMIN =          2.550364452389422E+02
(PID.TID 0000.0001) // CMAX =          3.154764877049333E+02
(PID.TID 0000.0001) // CINT =          2.238520091333006E+00
(PID.TID 0000.0001) // SYMBOLS (CMIN->CMAX): -abcdefghijklmnopqrstuvwxyz+
(PID.TID 0000.0001) //                  0.0: .
(PID.TID 0000.0001) // RANGE I (Lo:Hi:Step):(   1:   1:   1)
(PID.TID 0000.0001) // RANGE J (Lo:Hi:Step):(  64:   1:  -1)
(PID.TID 0000.0001) // RANGE K (Lo:Hi:Step):(   1:   1:   1)
(PID.TID 0000.0001) // =======================================================
(PID.TID 0000.0001) K =   1
(PID.TID 0000.0001) 
(PID.TID 0000.0001) |--J--|1
(PID.TID 0000.0001)     64 -
(PID.TID 0000.0001)     63 -
(PID.TID 0000.0001)     62 -
(PID.TID 0000.0001)     61 a
(PID.TID 0000.0001)     60 a
(PID.TID 0000.0001)     59 b
(PID.TID 0000.0001)     58 c
(PID.TID 0000.0001)     57 c
(PID.TID 0000.0001)     56 d
(PID.TID 0000.0001)     55 e
(PID.TID 0000.0001)     54 g
(PID.TID 0000.0001)     53 h
(PID.TID 0000.0001)     52 i
(PID.TID 0000.0001)     51 j
(PID.TID 0000.0001)     50 l
(PID.TID 0000.0001)     49 m
(PID.TID 0000.0001)     48 n
(PID.TID 0000.0001)     47 o
(PID.TID 0000.0001)     46 q
(PID.TID 0000.0001)     45 r
(PID.TID 0000.0001)     44 s
(PID.TID 0000.0001)     43 t
(PID.TID 0000.0001)     42 v
(PID.TID 0000.0001)     41 w
(PID.TID 0000.0001)     40 x
(PID.TID 0000.0001)     39 x
(PID.TID 0000.0001)     38 y
(PID.TID 0000.0001)     37 z
(PID.TID 0000.0001)     36 z
(PID.TID 0000.0001)     35 +
(PID.TID 0000.0001)     34 +
(PID.TID 0000.0001)     33 +
(PID.TID 0000.0001)     32 +
(PID.TID 0000.0001)     31 +
(PID.TID 0000.0001)     30 +
(PID.TID 0000.0001)     29 z
(PID.TID 0000.0001)     28 z
(PID.TID 0000.0001)     27 y
(PID.TID 0000.0001)     26 x
(PID.TID 0000.0001)     25 x
(PID.TID 0000.0001)     24 w
(PID.TID 0000.0001)     23 v
(PID.TID 0000.0001)     22 t
(PID.TID 0000.0001)     21 s
(PID.TID 0000.0001)     20 r
(PID.TID 0000.0001)     19 q
(PID.TID 0000.0001)     18 o
(PID.TID 0000.0001)     17 n
(PID.TID 0000.0001)     16 m
(PID.TID 0000.0001)     15 l
(PID.TID 0000.0001)     14 j
(PID.TID 0000.0001)     13 i
(PID.TID 0000.0001)     12 h
(PID.TID 0000.0001)     11 g
(PID.TID 0000.0001)     10 e
(PID.TID 0000.0001)      9 d
(PID.TID 0000.0001)      8 c
(PID.TID 0000.0001)      7 c
(PID.TID 0000.0001)      6 b
(PID.TID 0000.0001)      5 a
(PID.TID 0000.0001)      4 a
(PID.TID 0000.0001)      3 -
(PID.TID 0000.0001)      2 -
(PID.TID 0000.0001)      1 -
(PID.TID 0000.0001) // =======================================================
(PID.TID 0000.0001) // END OF FIELD                                          =
(PID.TID 0000.0001) // =======================================================
(PID.TID 0000.0001) 
(PID.TID 0000.0001) // =======================================================
(PID.TID 0000.0001) // Field Current cg2d_x  at iteration          0
(PID.TID 0000.0001) // CMIN =          1.000000000000000E+32
(PID.TID 0000.0001) // CMAX =         -1.000000000000000E+32
(PID.TID 0000.0001) // CINT =          0.000000000000000E+00
(PID.TID 0000.0001) // SYMBOLS (CMIN->CMAX): -abcdefghijklmnopqrstuvwxyz+
(PID.TID 0000.0001) //                  0.0: .
(PID.TID 0000.0001) // RANGE I (Lo:Hi:Step):(  -4:   6:   1)
(PID.TID 0000.0001) // RANGE J (Lo:Hi:Step):(  69:  -4:  -1)
(PID.TID 0000.0001) // RANGE K (Lo:Hi:Step):(   1:   1:   1)
(PID.TID 0000.0001) // =======================================================
 cg2d: Sum(rhs) =           7.38992200766120E-16
 CG2D iters, err =      0          3.51256851436534E+00
 CG2D iters, err =     66          8.47018615493323E-19
 cg2d: Sum(rhs) =           1.67227343084164E-15
 CG2D iters, err =      0          2.90436527725439E+00
 CG2D iters, err =     65          3.44996984090671E-18
 cg2d: Sum(rhs) =           2.01227923213310E-16
 CG2D iters, err =      0          2.11309098318313E+00
 CG2D iters, err =     65          1.72036833242585E-18
 cg2d: Sum(rhs) =           4.09394740330526E-16
 CG2D iters, err =      0          1.63680337132432E+00
 CG2D iters, err =     63          9.95157367931609E-18
 cg2d: Sum(rhs) =          -2.91433543964104E-15
 CG2D iters, err =      0          1.31275534283132E+00
 CG2D iters, err =     58          9.35484967482915E-18
 cg2d: Sum(rhs) =          -2.06779038336435E-15
 CG2D iters, err =      0          1.07494435104395E+00
 CG2D iters, err =     58          7.90100424301172E-18
 cg2d: Sum(rhs) =           1.61676227961038E-15
 CG2D iters, err =      0          8.90682652939849E-01
 CG2D iters, err =     62          7.40135598536742E-18
 cg2d: Sum(rhs) =          -1.83186799063151E-15
 CG2D iters, err =      0          7.41916831046200E-01
 CG2D iters, err =     59          9.69218219039859E-18
 cg2d: Sum(rhs) =          -7.63278329429795E-16
 CG2D iters, err =      0          6.17793456941207E-01
 CG2D iters, err =     59          4.83964624545777E-18
 cg2d: Sum(rhs) =           2.54657406273395E-15
 CG2D iters, err =      0          5.11300048088660E-01
 CG2D iters, err =     56          8.96534828096566E-18
 cg2d: Sum(rhs) =          -1.88044024795886E-15
 CG2D iters, err =      0          4.17628140064928E-01
 CG2D iters, err =     56          9.27125997333436E-18
 cg2d: Sum(rhs) =           1.14491749414469E-15
 CG2D iters, err =      0          3.33334023375951E-01
 CG2D iters, err =     56          8.03390599295767E-18
 cg2d: Sum(rhs) =           4.03843625207401E-15
 CG2D iters, err =      0          2.55906463113204E-01
 CG2D iters, err =     54          9.96094289651213E-18
 cg2d: Sum(rhs) =           4.42007541678890E-15
 CG2D iters, err =      0          1.83604384440196E-01
 CG2D iters, err =     52          8.82996205400996E-18
 cg2d: Sum(rhs) =           3.93435284351540E-15
 CG2D iters, err =      0          1.15764383651934E-01
 CG2D iters, err =     53          6.60341397686087E-18
 cg2d: Sum(rhs) =           3.49026363366534E-15
 CG2D iters, err =      0          5.64496988312016E-02
 CG2D iters, err =     52          9.28921657485990E-18
 cg2d: Sum(rhs) =           5.37764277552810E-15
 CG2D iters, err =      0          4.93264687308677E-02
 CG2D iters, err =     52          9.61824880114590E-18
 cg2d: Sum(rhs) =           1.38083988687754E-15
 CG2D iters, err =      0          1.05492256362140E-01
 CG2D iters, err =     53          8.77035671187636E-18
 cg2d: Sum(rhs) =          -4.23272528138341E-16
 CG2D iters, err =      0          1.72880637662149E-01
 CG2D iters, err =     57          8.58627045297228E-18
 cg2d: Sum(rhs) =           2.66453525910038E-15
 CG2D iters, err =      0          2.45139088522582E-01
 CG2D iters, err =     53          9.80727355787886E-18
(PID.TID 0000.0001) K =   1
(PID.TID 0000.0001)                I=5
(PID.TID 0000.0001) |--J--|****01234|6
(PID.TID 0000.0001)     69 ...........
(PID.TID 0000.0001)     68 ...........
(PID.TID 0000.0001)     67 ...........
(PID.TID 0000.0001)     66 ...........
(PID.TID 0000.0001)     65 ...........
(PID.TID 0000.0001)     64 ...........
(PID.TID 0000.0001)     63 ...........
(PID.TID 0000.0001)     62 ...........
(PID.TID 0000.0001)     61 ...........
(PID.TID 0000.0001)     60 ...........
(PID.TID 0000.0001)     59 ...........
(PID.TID 0000.0001)     58 ...........
(PID.TID 0000.0001)     57 ...........
(PID.TID 0000.0001)     56 ...........
(PID.TID 0000.0001)     55 ...........
(PID.TID 0000.0001)     54 ...........
(PID.TID 0000.0001)     53 ...........
(PID.TID 0000.0001)     52 ...........
(PID.TID 0000.0001)     51 ...........
(PID.TID 0000.0001)     50 ...........
(PID.TID 0000.0001)     49 ...........
(PID.TID 0000.0001)     48 ...........
(PID.TID 0000.0001)     47 ...........
(PID.TID 0000.0001)     46 ...........
(PID.TID 0000.0001)     45 ...........
(PID.TID 0000.0001)     44 ...........
(PID.TID 0000.0001)     43 ...........
(PID.TID 0000.0001)     42 ...........
(PID.TID 0000.0001)     41 ...........
(PID.TID 0000.0001)     40 ...........
(PID.TID 0000.0001)     39 ...........
(PID.TID 0000.0001)     38 ...........
(PID.TID 0000.0001)     37 ...........
(PID.TID 0000.0001)     36 ...........
(PID.TID 0000.0001)     35 ...........
(PID.TID 0000.0001)     34 ...........
(PID.TID 0000.0001)     33 ...........
(PID.TID 0000.0001)     32 ...........
(PID.TID 0000.0001)     31 ...........
(PID.TID 0000.0001)     30 ...........
(PID.TID 0000.0001)     29 ...........
(PID.TID 0000.0001)     28 ...........
(PID.TID 0000.0001)     27 ...........
(PID.TID 0000.0001)     26 ...........
(PID.TID 0000.0001)     25 ...........
(PID.TID 0000.0001)     24 ...........
(PID.TID 0000.0001)     23 ...........
(PID.TID 0000.0001)     22 ...........
(PID.TID 0000.0001)     21 ...........
(PID.TID 0000.0001)     20 ...........
(PID.TID 0000.0001)     19 ...........
(PID.TID 0000.0001)     18 ...........
(PID.TID 0000.0001)     17 ...........
(PID.TID 0000.0001)     16 ...........
(PID.TID 0000.0001)     15 ...........
(PID.TID 0000.0001)     14 ...........
(PID.TID 0000.0001)     13 ...........
(PID.TID 0000.0001)     12 ...........
(PID.TID 0000.0001)     11 ...........
(PID.TID 0000.0001)     10 ...........
(PID.TID 0000.0001)      9 ...........
(PID.TID 0000.0001)      8 ...........
(PID.TID 0000.0001)      7 ...........
(PID.TID 0000.0001)      6 ...........
(PID.TID 0000.0001)      5 ...........
(PID.TID 0000.0001)      4 ...........
(PID.TID 0000.0001)      3 ...........
(PID.TID 0000.0001)      2 ...........
(PID.TID 0000.0001)      1 ...........
(PID.TID 0000.0001)      0 ...........
(PID.TID 0000.0001)     -1 ...........
(PID.TID 0000.0001)     -2 ...........
(PID.TID 0000.0001)     -3 ...........
(PID.TID 0000.0001)     -4 ...........
(PID.TID 0000.0001) // =======================================================
(PID.TID 0000.0001) // END OF FIELD                                          =
(PID.TID 0000.0001) // =======================================================
(PID.TID 0000.0001) 
(PID.TID 0000.0001)  Seconds in section "ALL                [THE_MODEL_MAIN]":
(PID.TID 0000.0001)          User time:   1.209999918937683
(PID.TID 0000.0001)        System time:  0.0000000000000000E+000
(PID.TID 0000.0001)    Wall clock time:   1.201109051704407
(PID.TID 0000.0001)         No. starts:           1
(PID.TID 0000.0001)          No. stops:           1
(PID.TID 0000.0001)  Seconds in section "INITIALISE_FIXED   [THE_MODEL_MAIN]":
(PID.TID 0000.0001)          User time:  4.9999997019767761E-002
(PID.TID 0000.0001)        System time:  0.0000000000000000E+000
(PID.TID 0000.0001)    Wall clock time:  3.9721012115478516E-002
(PID.TID 0000.0001)         No. starts:           1
(PID.TID 0000.0001)          No. stops:           1
(PID.TID 0000.0001)  Seconds in section "THE_MAIN_LOOP      [THE_MODEL_MAIN]":
(PID.TID 0000.0001)          User time:   1.159999921917915
(PID.TID 0000.0001)        System time:  0.0000000000000000E+000
(PID.TID 0000.0001)    Wall clock time:   1.160911083221436
(PID.TID 0000.0001)         No. starts:           1
(PID.TID 0000.0001)          No. stops:           1
(PID.TID 0000.0001)  Seconds in section "SPIN-UP            [THE_MAIN_LOOP]":
(PID.TID 0000.0001)          User time:  1.0000001639127731E-002
(PID.TID 0000.0001)        System time:  0.0000000000000000E+000
(PID.TID 0000.0001)    Wall clock time:  1.4575004577636719E-002
(PID.TID 0000.0001)         No. starts:           1
(PID.TID 0000.0001)          No. stops:           1
(PID.TID 0000.0001)  Seconds in section "INITIALISE_VARIA   [THE_MAIN_LOOP]":
(PID.TID 0000.0001)          User time:  1.0000001639127731E-002
(PID.TID 0000.0001)        System time:  0.0000000000000000E+000
(PID.TID 0000.0001)    Wall clock time:  1.0282039642333984E-002
(PID.TID 0000.0001)         No. starts:           1
(PID.TID 0000.0001)          No. stops:           1
(PID.TID 0000.0001)  Seconds in section "I/O (WRITE)        [THE_MAIN_LOOP]":
(PID.TID 0000.0001)          User time:  9.9999904632568359E-003
(PID.TID 0000.0001)        System time:  0.0000000000000000E+000
(PID.TID 0000.0001)    Wall clock time:  1.1201024055480957E-002
(PID.TID 0000.0001)         No. starts:           2
(PID.TID 0000.0001)          No. stops:           2
(PID.TID 0000.0001)  Seconds in section "MAIN LOOP          [THE_MAIN_LOOP]":
(PID.TID 0000.0001)          User time:   1.089999977499247
(PID.TID 0000.0001)        System time:  0.0000000000000000E+000
(PID.TID 0000.0001)    Wall clock time:   1.089096069335938
(PID.TID 0000.0001)         No. starts:           1
(PID.TID 0000.0001)          No. stops:           1
(PID.TID 0000.0001)  Seconds in section "FORWARD_STEP       [THE_MAIN_LOOP]":
(PID.TID 0000.0001)          User time:   1.129999939352274
(PID.TID 0000.0001)        System time:  0.0000000000000000E+000
(PID.TID 0000.0001)    Wall clock time:   1.137494921684265
(PID.TID 0000.0001)         No. starts:          21
(PID.TID 0000.0001)          No. stops:          21
(PID.TID 0000.0001)  Seconds in section "I/O (READ)         [FORWARD_STEP]":
(PID.TID 0000.0001)          User time:  9.9999904632568359E-003
(PID.TID 0000.0001)        System time:  0.0000000000000000E+000
(PID.TID 0000.0001)    Wall clock time:  4.2068958282470703E-004
(PID.TID 0000.0001)         No. starts:          21
(PID.TID 0000.0001)          No. stops:          21
(PID.TID 0000.0001)  Seconds in section "DYNAMICS           [FORWARD_STEP]":
(PID.TID 0000.0001)          User time:  0.7399997822940350
(PID.TID 0000.0001)        System time:  0.0000000000000000E+000
(PID.TID 0000.0001)    Wall clock time:  0.7409350872039795
(PID.TID 0000.0001)         No. starts:          21
(PID.TID 0000.0001)          No. stops:          21
(PID.TID 0000.0001)  Seconds in section "AIM_DO_ATMOS_PHYS      [DYNAMICS]":
(PID.TID 0000.0001)          User time:  4.9999978393316269E-002
(PID.TID 0000.0001)        System time:  0.0000000000000000E+000
(PID.TID 0000.0001)    Wall clock time:  4.4538617134094238E-002
(PID.TID 0000.0001)         No. starts:          21
(PID.TID 0000.0001)          No. stops:          21
(PID.TID 0000.0001)  Seconds in section "SHAP_FILT          [FORWARD_STEP]":
(PID.TID 0000.0001)          User time:  0.2100002020597458
(PID.TID 0000.0001)        System time:  0.0000000000000000E+000
(PID.TID 0000.0001)    Wall clock time:  0.2168046236038208
(PID.TID 0000.0001)         No. starts:          21
(PID.TID 0000.0001)          No. stops:          21
(PID.TID 0000.0001)  Seconds in section "I/O (WRITE)        [FORWARD_STEP]":
(PID.TID 0000.0001)          User time:  1.9999980926513672E-002
(PID.TID 0000.0001)        System time:  0.0000000000000000E+000
(PID.TID 0000.0001)    Wall clock time:  1.2267947196960449E-002
(PID.TID 0000.0001)         No. starts:          41
(PID.TID 0000.0001)          No. stops:          41
(PID.TID 0000.0001)  Seconds in section "SOLVE_FOR_PRESSURE [FORWARD_STEP]":
(PID.TID 0000.0001)       NORMAL END
   User time:  9.0000040829181671E-002
(PID.TID 0000.0001)        System time:  0.0000000000000000E+000
(PID.TID 0000.0001)    Wall clock time:  7.9516053199768066E-002
(PID.TID 0000.0001)         No. starts:          20
(PID.TID 0000.0001)          No. stops:          20
(PID.TID 0000.0001)  Seconds in section "BLOCKING_EXCHANGES [FORWARD_STEP]":
(PID.TID 0000.0001)          User time:  2.9999971389770508E-002
(PID.TID 0000.0001)        System time:  0.0000000000000000E+000
(PID.TID 0000.0001)    Wall clock time:  3.0178904533386230E-002
(PID.TID 0000.0001)         No. starts:          20
(PID.TID 0000.0001)          No. stops:          20
(PID.TID 0000.0001)  Seconds in section "SPIN-DOWN          [THE_MAIN_LOOP]":
(PID.TID 0000.0001)          User time:  5.9999942779541016E-002
(PID.TID 0000.0001)        System time:  0.0000000000000000E+000
(PID.TID 0000.0001)    Wall clock time:  5.6643962860107422E-002
(PID.TID 0000.0001)         No. starts:           1
(PID.TID 0000.0001)          No. stops:           1
(PID.TID 0000.0001) // ======================================================
(PID.TID 0000.0001) // Tile <-> Tile communication statistics
(PID.TID 0000.0001) // ======================================================
(PID.TID 0000.0001) // o Tile number: 000001
(PID.TID 0000.0001) //         No. X exchanges =           3665
(PID.TID 0000.0001) //            Max. X spins =              1
(PID.TID 0000.0001) //            Min. X spins =              1
(PID.TID 0000.0001) //          Total. X spins =           3665
(PID.TID 0000.0001) //            Avg. X spins =       1.00E+00
(PID.TID 0000.0001) //         No. Y exchanges =           3665
(PID.TID 0000.0001) //            Max. Y spins =              1
(PID.TID 0000.0001) //            Min. Y spins =              1
(PID.TID 0000.0001) //          Total. Y spins =           3665
(PID.TID 0000.0001) //            Avg. Y spins =       1.00E+00
(PID.TID 0000.0001) // o Thread number: 000001
(PID.TID 0000.0001) //            No. barriers =              0
(PID.TID 0000.0001) //      Max. barrier spins =              0
(PID.TID 0000.0001) //      Min. barrier spins =     1000000000
(PID.TID 0000.0001) //     Total barrier spins =              0
(PID.TID 0000.0001) //      Avg. barrier spins =       0.00E+00
