(PID.TID 0000.0001) 
(PID.TID 0000.0001) // ======================================================
(PID.TID 0000.0001) //                      MITgcm UV
(PID.TID 0000.0001) //                      =========
(PID.TID 0000.0001) // ======================================================
(PID.TID 0000.0001) // execution environment starting up...
(PID.TID 0000.0001) // Run starting Wed Apr  1 14:19:48 1998
(PID.TID 0000.0001) // on melville.lcs.mit.edu
(PID.TID 0000.0001) // account cnh
(PID.TID 0000.0001) // MITgcm UV Release: $Name$
(PID.TID 0000.0001) 
(PID.TID 0000.0001) // =======================================================
(PID.TID 0000.0001) // Execution Environment parameter file "eedata"
(PID.TID 0000.0001) // =======================================================
(PID.TID 0000.0001) ># Example "eedata" file
(PID.TID 0000.0001) ># Lines beginning "#" are comments
(PID.TID 0000.0001) ># nTx - No. threads per process in X
(PID.TID 0000.0001) ># nTy - No. threads per process in Y
(PID.TID 0000.0001) > &EEPARMS
(PID.TID 0000.0001) > useCubedSphereExchange=.TRUE.,
(PID.TID 0000.0001) > nTx=1,nTy=1
(PID.TID 0000.0001) > &
(PID.TID 0000.0001) ># Note: Some systems use & as the
(PID.TID 0000.0001) ># namelist terminator. Other systems
(PID.TID 0000.0001) ># use a / character (as shown here).
(PID.TID 0000.0001) 
(PID.TID 0000.0001) // =======================================================
(PID.TID 0000.0001) // Computational Grid Specification ( see files "SIZE.h" )
(PID.TID 0000.0001) //                                  ( and "eedata"       )
(PID.TID 0000.0001) // =======================================================
(PID.TID 0000.0001)      nPx =    1 ; /* No. processes in X */
(PID.TID 0000.0001)      nPy =    1 ; /* No. processes in Y */
(PID.TID 0000.0001)      nSx =    6 ; /* No. tiles in X per process */
(PID.TID 0000.0001)      nSy =    1 ; /* No. tiles in Y per process */
(PID.TID 0000.0001)      sNx =   32 ; /* Tile size in X */
(PID.TID 0000.0001)      sNy =   32 ; /* Tile size in Y */
(PID.TID 0000.0001)      OLx =    3 ; /* Tile overlap distance in X */
(PID.TID 0000.0001)      OLy =    3 ; /* Tile overlap distance in Y */
(PID.TID 0000.0001)      nTx =    1 ; /* No. threads in X per process */
(PID.TID 0000.0001)      nTy =    1 ; /* No. threads in Y per process */
(PID.TID 0000.0001)       Nr =   30 ; /* No. levels in the vertical   */
(PID.TID 0000.0001)       nX =  192 ; /* Total domain size in X ( = nPx*nSx*sNx ) */
(PID.TID 0000.0001)       nY =   32 ; /* Total domain size in Y ( = nPy*nSy*sNy ) */
(PID.TID 0000.0001)   nTiles =    6 ; /* Total no. tiles per process ( = nSx*nSy ) */
(PID.TID 0000.0001)   nProcs =    1 ; /* Total no. processes ( = nPx*nPy ) */
(PID.TID 0000.0001) nThreads =    1 ; /* Total no. threads per process ( = nTx*nTy ) */
(PID.TID 0000.0001) usingMPI =    F ; /* Flag used to control whether MPI is in use */
(PID.TID 0000.0001)                   /*  note: To execute a program with MPI calls */
(PID.TID 0000.0001)                   /*  it must be launched appropriately e.g     */
(PID.TID 0000.0001)                   /*  "mpirun -np 64 ......"                    */
(PID.TID 0000.0001) 
(PID.TID 0000.0001) // ======================================================
(PID.TID 0000.0001) // Mapping of tiles to threads
(PID.TID 0000.0001) // ======================================================
(PID.TID 0000.0001) // -o- Thread   1, tiles (   1:   6,   1:   1)
(PID.TID 0000.0001) 
(PID.TID 0000.0001) // ======================================================
(PID.TID 0000.0001) // Tile <-> Tile connectvity table
(PID.TID 0000.0001) // ======================================================
(PID.TID 0000.0001) // Tile number: 000001 (process no. = 000001)
(PID.TID 0000.0001) //        WEST: Tile = 000006, Process = 000001, Comm = put
(PID.TID 0000.0001) //                bi = 000006, bj = 000001
(PID.TID 0000.0001) //        EAST: Tile = 000002, Process = 000001, Comm = put
(PID.TID 0000.0001) //                bi = 000002, bj = 000001
(PID.TID 0000.0001) //       SOUTH: Tile = 000001, Process = 000001, Comm = put
(PID.TID 0000.0001) //                bi = 000001, bj = 000001
(PID.TID 0000.0001) //       NORTH: Tile = 000001, Process = 000001, Comm = put
(PID.TID 0000.0001) //                bi = 000001, bj = 000001
(PID.TID 0000.0001) // Tile number: 000002 (process no. = 000001)
(PID.TID 0000.0001) //        WEST: Tile = 000001, Process = 000001, Comm = put
(PID.TID 0000.0001) //                bi = 000001, bj = 000001
(PID.TID 0000.0001) //        EAST: Tile = 000003, Process = 000001, Comm = put
(PID.TID 0000.0001) //                bi = 000003, bj = 000001
(PID.TID 0000.0001) //       SOUTH: Tile = 000002, Process = 000001, Comm = put
(PID.TID 0000.0001) //                bi = 000002, bj = 000001
(PID.TID 0000.0001) //       NORTH: Tile = 000002, Process = 000001, Comm = put
(PID.TID 0000.0001) //                bi = 000002, bj = 000001
(PID.TID 0000.0001) // Tile number: 000003 (process no. = 000001)
(PID.TID 0000.0001) //        WEST: Tile = 000002, Process = 000001, Comm = put
(PID.TID 0000.0001) //                bi = 000002, bj = 000001
(PID.TID 0000.0001) //        EAST: Tile = 000004, Process = 000001, Comm = put
(PID.TID 0000.0001) //                bi = 000004, bj = 000001
(PID.TID 0000.0001) //       SOUTH: Tile = 000003, Process = 000001, Comm = put
(PID.TID 0000.0001) //                bi = 000003, bj = 000001
(PID.TID 0000.0001) //       NORTH: Tile = 000003, Process = 000001, Comm = put
(PID.TID 0000.0001) //                bi = 000003, bj = 000001
(PID.TID 0000.0001) // Tile number: 000004 (process no. = 000001)
(PID.TID 0000.0001) //        WEST: Tile = 000003, Process = 000001, Comm = put
(PID.TID 0000.0001) //                bi = 000003, bj = 000001
(PID.TID 0000.0001) //        EAST: Tile = 000005, Process = 000001, Comm = put
(PID.TID 0000.0001) //                bi = 000005, bj = 000001
(PID.TID 0000.0001) //       SOUTH: Tile = 000004, Process = 000001, Comm = put
(PID.TID 0000.0001) //                bi = 000004, bj = 000001
(PID.TID 0000.0001) //       NORTH: Tile = 000004, Process = 000001, Comm = put
(PID.TID 0000.0001) //                bi = 000004, bj = 000001
(PID.TID 0000.0001) // Tile number: 000005 (process no. = 000001)
(PID.TID 0000.0001) //        WEST: Tile = 000004, Process = 000001, Comm = put
(PID.TID 0000.0001) //                bi = 000004, bj = 000001
(PID.TID 0000.0001) //        EAST: Tile = 000006, Process = 000001, Comm = put
(PID.TID 0000.0001) //                bi = 000006, bj = 000001
(PID.TID 0000.0001) //       SOUTH: Tile = 000005, Process = 000001, Comm = put
(PID.TID 0000.0001) //                bi = 000005, bj = 000001
(PID.TID 0000.0001) //       NORTH: Tile = 000005, Process = 000001, Comm = put
(PID.TID 0000.0001) //                bi = 000005, bj = 000001
(PID.TID 0000.0001) // Tile number: 000006 (process no. = 000001)
(PID.TID 0000.0001) //        WEST: Tile = 000005, Process = 000001, Comm = put
(PID.TID 0000.0001) //                bi = 000005, bj = 000001
(PID.TID 0000.0001) //        EAST: Tile = 000001, Process = 000001, Comm = put
(PID.TID 0000.0001) //                bi = 000001, bj = 000001
(PID.TID 0000.0001) //       SOUTH: Tile = 000006, Process = 000001, Comm = put
(PID.TID 0000.0001) //                bi = 000006, bj = 000001
(PID.TID 0000.0001) //       NORTH: Tile = 000006, Process = 000001, Comm = put
(PID.TID 0000.0001) //                bi = 000006, bj = 000001
(PID.TID 0000.0001) 
(PID.TID 0000.0001) // =======================================================
(PID.TID 0000.0001) // Model parameter file "data"
(PID.TID 0000.0001) // =======================================================
(PID.TID 0000.0001) ># ====================
(PID.TID 0000.0001) ># | Model parameters |
(PID.TID 0000.0001) ># ====================
(PID.TID 0000.0001) >#
(PID.TID 0000.0001) ># Continuous equation parameters
(PID.TID 0000.0001) > &PARM01
(PID.TID 0000.0001) > tRef=30*20.,
(PID.TID 0000.0001) > sRef=30*35.,
(PID.TID 0000.0001) > viscAh =3.E5,
(PID.TID 0000.0001) > viscAz =1.67E-3,
(PID.TID 0000.0001) > diffKhT=0.,
(PID.TID 0000.0001) > diffK4T=0.,
(PID.TID 0000.0001) > diffKzT=0.5E-4,
(PID.TID 0000.0001) > diffKhS=0.,
(PID.TID 0000.0001) > diffK4S=0.,
(PID.TID 0000.0001) > diffKzS=0.5E-4,
(PID.TID 0000.0001) > gravity=9.81,
(PID.TID 0000.0001) > gBaro=9.81,
(PID.TID 0000.0001) > rhonil=1035.,
(PID.TID 0000.0001) > rigidLid=.FALSE.,
(PID.TID 0000.0001) > implicitFreeSurface=.TRUE.,
(PID.TID 0000.0001) > eosType='JMD95Z',
(PID.TID 0000.0001) > ivdc_kappa=10.0,
(PID.TID 0000.0001) > implicitDiffusion=.TRUE.,
(PID.TID 0000.0001) > allowFreezing=.TRUE.,
(PID.TID 0000.0001) > bottomDragQuadratic=1.E-3,
(PID.TID 0000.0001) > tempAdvScheme=2,
(PID.TID 0000.0001) > saltAdvScheme=2,
(PID.TID 0000.0001) > tempStepping =.TRUE.,
(PID.TID 0000.0001) > saltStepping =.TRUE.,
(PID.TID 0000.0001) > useRealFreshWaterFlux=.FALSE.,
(PID.TID 0000.0001) >#hFacMinDz=0,
(PID.TID 0000.0001) > readBinaryPrec=64,
(PID.TID 0000.0001) >#cosPower=0.5,
(PID.TID 0000.0001) > vectorInvariantMomentum=.TRUE.,
(PID.TID 0000.0001) > &
(PID.TID 0000.0001) >
(PID.TID 0000.0001) ># Elliptic solver parameters
(PID.TID 0000.0001) > &PARM02
(PID.TID 0000.0001) > cg2dMaxIters=200,
(PID.TID 0000.0001) > cg2dTargetResidual=1.E-9,
(PID.TID 0000.0001) > &
(PID.TID 0000.0001) >
(PID.TID 0000.0001) ># Time stepping parameters
(PID.TID 0000.0001) > &PARM03
(PID.TID 0000.0001) > niter0=0,
(PID.TID 0000.0001) > nTimeSteps=360,
(PID.TID 0000.0001) > deltaTmom   =1200.0,
(PID.TID 0000.0001) > deltaTtracer=86400.0,
(PID.TID 0000.0001) > deltaTfreesurf=86400.0,
(PID.TID 0000.0001) > deltaTClock =86400.0,
(PID.TID 0000.0001) > pChkptFreq  =31104000.,
(PID.TID 0000.0001) > chkptFreq   =31104000.,
(PID.TID 0000.0001) > dumpFreq    =31104000.,
(PID.TID 0000.0001) > taveFreq    =31104000.,
(PID.TID 0000.0001) > monitorFreq =31104000.,
(PID.TID 0000.0001) > periodicExternalForcing=.TRUE.,
(PID.TID 0000.0001) > externForcingPeriod=2592000.,
(PID.TID 0000.0001) > externForcingCycle=31104000.,
(PID.TID 0000.0001) ># tauThetaClimRelax=1036800.0,
(PID.TID 0000.0001) ># tauSaltClimRelax =62208000.0,
(PID.TID 0000.0001) > abEps=0.1,
(PID.TID 0000.0001) > &
(PID.TID 0000.0001) >
(PID.TID 0000.0001) ># Gridding parameters
(PID.TID 0000.0001) > &PARM04
(PID.TID 0000.0001) > usingCartesianGrid=.FALSE.,
(PID.TID 0000.0001) > usingSphericalPolarGrid=.FALSE.,
(PID.TID 0000.0001) > usingCurvilinearGrid=.TRUE.,
(PID.TID 0000.0001) > delZ= 10.0, 10.0, 15.0, 21.0, 28.0, 36.0, 45.0, 55.0, 66.0, 78.0,
(PID.TID 0000.0001) >       91.0,105.0,120.0,136.0,154.0,172.0,191.0,211.0,232.0,254.0,
(PID.TID 0000.0001) >      278.0,302.0,327.0,353.0,380.0,408.0,437.0,466.0,497.0,529.0,
(PID.TID 0000.0001) > &
(PID.TID 0000.0001) >
(PID.TID 0000.0001) ># Input datasets
(PID.TID 0000.0001) > &PARM05
(PID.TID 0000.0001) > bathyFile      ='bathymetry.bin',
(PID.TID 0000.0001) > hydrogThetaFile='lev_t.bin',
(PID.TID 0000.0001) > hydrogSaltFile ='lev_s.bin',
(PID.TID 0000.0001) > zonalWindFile  ='trenberth_taux.bin',
(PID.TID 0000.0001) > meridWindFile  ='trenberth_tauy.bin',
(PID.TID 0000.0001) ># thetaClimFile  ='lev_sst.bin',
(PID.TID 0000.0001) ># saltClimFile   ='lev_sss.bin',
(PID.TID 0000.0001) ># surfQFile      ='shi_qnet.bin',
(PID.TID 0000.0001) ># EmPmRFile      ='shi_empmr.bin',
(PID.TID 0000.0001) > &
(PID.TID 0000.0001) 
(PID.TID 0000.0001) S/R INI_PARMS ; read PARM01 : OK
(PID.TID 0000.0001) S/R INI_PARMS ; read PARM02 : OK
(PID.TID 0000.0001) S/R INI_PARMS ; read PARM03 : OK
(PID.TID 0000.0001) S/R INI_PARMS ; read PARM04 : OK
(PID.TID 0000.0001) S/R INI_PARMS ; read PARM05 : OK
 icg:            1           1
 icg:            2           1
 icg:            3           1
 icg:            4           1
 icg:            5           1
 icg:            6           1
 icg: xc,yc
 icg: ra
 icg: xg,yg
 icg: raw,ras
 icg: end
(PID.TID 0000.0001) %MON XC_max                       =   1.7854425188932E+02
(PID.TID 0000.0001) %MON XC_min                       =  -1.7854425188932E+02
(PID.TID 0000.0001) %MON XC_mean                      =   6.9388939039072E-18
(PID.TID 0000.0001) %MON XC_sd                        =   1.0355546705522E+02
(PID.TID 0000.0001) %MON XG_max                       =   1.8000000000000E+02
(PID.TID 0000.0001) %MON XG_min                       =  -1.7708835838197E+02
(PID.TID 0000.0001) %MON XG_mean                      =   1.8648248643315E+00
(PID.TID 0000.0001) %MON XG_sd                        =   1.0409692836920E+02
(PID.TID 0000.0001) %MON DXC_max                      =   3.2359735330920E+05
(PID.TID 0000.0001) %MON DXC_min                      =   1.1172636236868E+05
(PID.TID 0000.0001) %MON DXC_mean                     =   2.8606323970093E+05
(PID.TID 0000.0001) %MON DXC_sd                       =   3.4027953062872E+04
(PID.TID 0000.0001) %MON DXF_max                      =   3.2364800656192E+05
(PID.TID 0000.0001) %MON DXF_min                      =   1.2085322932346E+05
(PID.TID 0000.0001) %MON DXF_mean                     =   2.8606323970093E+05
(PID.TID 0000.0001) %MON DXF_sd                       =   3.4026039646663E+04
(PID.TID 0000.0001) %MON DXG_max                      =   3.2370895839948E+05
(PID.TID 0000.0001) %MON DXG_min                      =   1.0098378008723E+05
(PID.TID 0000.0001) %MON DXG_mean                     =   2.8604550951188E+05
(PID.TID 0000.0001) %MON DXG_sd                       =   3.4123856097537E+04
(PID.TID 0000.0001) %MON DXV_max                      =   3.2365853048552E+05
(PID.TID 0000.0001) %MON DXV_min                      =   8.0152299824660E+04
(PID.TID 0000.0001) %MON DXV_mean                     =   2.8604550951188E+05
(PID.TID 0000.0001) %MON DXV_sd                       =   3.4133895789168E+04
(PID.TID 0000.0001) %MON YC_max                       =   8.7941704053357E+01
(PID.TID 0000.0001) %MON YC_min                       =  -8.7941704053357E+01
(PID.TID 0000.0001) %MON YC_mean                      =  -2.8912057932947E-18
(PID.TID 0000.0001) %MON YC_sd                        =   3.8676249339012E+01
(PID.TID 0000.0001) %MON YG_max                       =   9.0000000000000E+01
(PID.TID 0000.0001) %MON YG_min                       =  -9.0000000000000E+01
(PID.TID 0000.0001) %MON YG_mean                      =  -4.1338091342426E-18
(PID.TID 0000.0001) %MON YG_sd                        =   3.9086190155488E+01
(PID.TID 0000.0001) %MON DYC_max                      =   3.2359735330920E+05
(PID.TID 0000.0001) %MON DYC_min                      =   1.1172636236868E+05
(PID.TID 0000.0001) %MON DYC_mean                     =   2.8606323970093E+05
(PID.TID 0000.0001) %MON DYC_sd                       =   3.4027953062872E+04
(PID.TID 0000.0001) %MON DYF_max                      =   3.2364800656192E+05
(PID.TID 0000.0001) %MON DYF_min                      =   1.2085322932346E+05
(PID.TID 0000.0001) %MON DYF_mean                     =   2.8606323970093E+05
(PID.TID 0000.0001) %MON DYF_sd                       =   3.4026039646663E+04
(PID.TID 0000.0001) %MON DYG_max                      =   3.2370895839948E+05
(PID.TID 0000.0001) %MON DYG_min                      =   1.0098378008723E+05
(PID.TID 0000.0001) %MON DYG_mean                     =   2.8604550951188E+05
(PID.TID 0000.0001) %MON DYG_sd                       =   3.4123856097537E+04
(PID.TID 0000.0001) %MON DYU_max                      =   3.2365853048552E+05
(PID.TID 0000.0001) %MON DYU_min                      =   8.0152299824660E+04
(PID.TID 0000.0001) %MON DYU_mean                     =   2.8604550951188E+05
(PID.TID 0000.0001) %MON DYU_sd                       =   3.4133895789168E+04
(PID.TID 0000.0001) %MON RA_max                       =   1.0473777081579E+11
(PID.TID 0000.0001) %MON RA_min                       =   1.4871951912872E+10
(PID.TID 0000.0001) %MON RA_mean                      =   8.2992246708646E+10
(PID.TID 0000.0001) %MON RA_sd                        =   1.7473036319033E+10
(PID.TID 0000.0001) %MON RAW_max                      =   1.0473665817231E+11
(PID.TID 0000.0001) %MON RAW_min                      =   1.2476806624439E+10
(PID.TID 0000.0001) %MON RAW_mean                     =   8.2992246708646E+10
(PID.TID 0000.0001) %MON RAW_sd                       =   1.7473302287830E+10
(PID.TID 0000.0001) %MON RAS_max                      =   1.0473665817231E+11
(PID.TID 0000.0001) %MON RAS_min                      =   1.2476806624439E+10
(PID.TID 0000.0001) %MON RAS_mean                     =   8.2992246708646E+10
(PID.TID 0000.0001) %MON RAS_sd                       =   1.7473302287830E+10
(PID.TID 0000.0001) %MON RAZ_max                      =   1.0473382176604E+11
(PID.TID 0000.0001) %MON RAZ_min                      =   7.0081950152364E+09
(PID.TID 0000.0001) %MON RAZ_mean                     =   8.2989965395164E+10
(PID.TID 0000.0001) %MON RAZ_sd                       =   1.7483378963099E+10
(PID.TID 0000.0001) check_eos: Check the equation of state: Type JMD95Z
(PID.TID 0000.0001) rho(35.5 PSU, 3.0 degC, 300. bar) = 1041.83267    -1.00000
(PID.TID 0000.0001) rho(find_rho)                     = 1041.83267 23069.54233
(PID.TID 0000.0001) rho(find_rho_scalar)              = 1041.83267     0.00000
(PID.TID 0000.0001) rho(35.0 PSU,20.0 degC, 200. bar) = 1033.21339    -1.00000
(PID.TID 0000.0001) rho(find_rho)                     = 1033.21284 24455.23234
(PID.TID 0000.0001) rho(find_rho_scalar)              = 1033.21284     0.00000
(PID.TID 0000.0001) rho(35.0 PSU,25.0 degC, 200. bar) = 1031.65423    -1.00000
(PID.TID 0000.0001) rho(find_rho)                     = 1031.65213 24831.95470
(PID.TID 0000.0001) rho(find_rho_scalar)              = 1031.65213     0.00000
(PID.TID 0000.0001) rho(20.0 PSU,20.0 degC, 100. bar) = 1017.72674    -1.00000
(PID.TID 0000.0001) rho(find_rho)                     = 1017.72886 23305.70425
(PID.TID 0000.0001) rho(find_rho_scalar)              = 1017.72886     0.00000
(PID.TID 0000.0001) rho(40.0 PSU,12.0 degC, 800. bar) = 1062.92826    -1.00000
(PID.TID 0000.0001) rho(find_rho)                     = 1062.93765 26197.90058
(PID.TID 0000.0001) rho(find_rho_scalar)              = 1062.93765     0.00000
(PID.TID 0000.0001) rho( 0.0 PSU, 5.0 degC,   0. bar) =  999.96675 20337.80375
(PID.TID 0000.0001) rho(find_rho)                     =  999.96675 20340.00932
(PID.TID 0000.0001) rho(find_rho_scalar)              =  999.96675     0.00000
(PID.TID 0000.0001) rho( 0.0 PSU,25.0 degC,   0. bar) =  997.04796 22100.72106
(PID.TID 0000.0001) rho(find_rho)                     =  997.04796 22338.16845
(PID.TID 0000.0001) rho(find_rho_scalar)              =  997.04796     0.00000
(PID.TID 0000.0001) rho(35.0 PSU, 5.0 degC,   0. bar) = 1027.67547 22185.93358
(PID.TID 0000.0001) rho(find_rho)                     = 1027.67547 22228.20795
(PID.TID 0000.0001) rho(find_rho_scalar)              = 1027.67547     0.00000
(PID.TID 0000.0001) rho(35.0 PSU,25.0 degC,   0. bar) = 1023.34306 23726.34949
(PID.TID 0000.0001) rho(find_rho)                     = 1023.34306 24093.88755
(PID.TID 0000.0001) rho(find_rho_scalar)              = 1023.34306     0.00000
(PID.TID 0000.0001) rho( 0.0 PSU, 4.0 degC,1000. bar) = 1044.12802 23643.52599
(PID.TID 0000.0001) rho(find_rho)                     = 1044.12329 23650.33430
(PID.TID 0000.0001) rho(find_rho_scalar)              = 1044.12329     0.00000
(PID.TID 0000.0001) rho( 0.0 PSU,22.8 degC,1000. bar) = 1037.90204 25405.09717
(PID.TID 0000.0001) rho(find_rho)                     = 1037.89958 25740.15017
(PID.TID 0000.0001) rho(find_rho_scalar)              = 1037.89958     0.00000
(PID.TID 0000.0001) rho(35.0 PSU, 3.6 degC,1000. bar) = 1069.48914 25577.49819
(PID.TID 0000.0001) rho(find_rho)                     = 1069.48679 25670.45688
(PID.TID 0000.0001) rho(find_rho_scalar)              = 1069.48679     0.00000
(PID.TID 0000.0001) rho(35.0 PSU,22.6 degC,1000. bar) = 1062.53817 27108.94504
(PID.TID 0000.0001) rho(find_rho)                     = 1062.53756 27602.20923
(PID.TID 0000.0001) rho(find_rho_scalar)              = 1062.53756     0.00000
(PID.TID 0000.0001) end check the equation of state
(PID.TID 0000.0001)  MDSREADFIELD: opening global file: bathymetry.bin
(PID.TID 0000.0001) // =======================================================
(PID.TID 0000.0001) // Field Model R_low (ini_masks_etc) at iteration          1
(PID.TID 0000.0001) // CMIN =         -6.007000000000000E+03
(PID.TID 0000.0001) // CMAX =         -2.000000000000000E+01
(PID.TID 0000.0001) // CINT =          2.217407407407407E+02
(PID.TID 0000.0001) // SYMBOLS (CMIN->CMAX): -abcdefghijklmnopqrstuvwxyz+
(PID.TID 0000.0001) //                  0.0: .
(PID.TID 0000.0001) // RANGE I (Lo:Hi:Step):(  -2: 195:   1)
(PID.TID 0000.0001) // RANGE J (Lo:Hi:Step):(  35:  -2:  -1)
(PID.TID 0000.0001) // RANGE K (Lo:Hi:Step):(   1:   1:   1)
(PID.TID 0000.0001) // =======================================================
(PID.TID 0000.0001) K =   1
(PID.TID 0000.0001) //                I=7       I=17      I=27      I=31      I=41      I=51      I=61      I=65      I=75      I=85      I=95      I=99      I=109     I=119     I=129     I=133     I=143     I=153     I=163     I=167     I=177     I=187
(PID.TID 0000.0001) // |--J--|**0123456|890123456|890123456|890123450|234567890|234567890|234567890|234567234|678901234|678901234|678901234|678945678|012345678|012345678|012345678|016789012|456789012|456789012|456789012|890123456|890123456|890123456|89012345
(PID.TID 0000.0001) //     35 ...bbgeeiiioliggz+..................................................zoor+......geebbbgeeeiq.............wiggggg......eeggggggggeeggggggggiiiiikiiiikg......ikolieebbeeegkgii+..+wytlkiiigee......igggggkiiiknkligeeeeggkkiikoeees...
(PID.TID 0000.0001) //     34 ...eeeeegklrlgggn+..................................................zoovz......geikbbeeego+.............+igeeee......eegggggeeeeeegggggggiiiiikiiiigg......giloiigeeeeekggik.......znnkkgee......geeeeggiiiknniigeeegeeeniikeeeev...
(PID.TID 0000.0001) //     33 ...geegggkrnngiggi..................................................zsswz......geebbbeegs+...............igeeee......eeggiggeeeeeegggggggiiikikiiiggg......giklnkiiiiilggki+........xokkige......eeeeeeeggiknkiiiggggeeeoiieeeegn...
(PID.TID 0000.0001) //     32 eegggikkktrliieegi................................................++.zz+....kiggebbbeegs+................lgeeeeeeeeeeeeeigggeeeeeeggigggiiiioiiiigggggggeeggggiiilkklleegit+........+ynligeeeeigeeeeeeeegggiknliiggggegebbeeegglnnoo
(PID.TID 0000.0001) //     31 iegiiklqsowlieeeq.................................................++.++.+ttyligeebbiggy+................uonggeeeeegeeeeeiggeeeeeeeeggggioiioiiiiigggeeeeeeeeeeggggigkgeego+..........+zrlgeeeelgeeeeeeeeeeggiknkiikgggeebbggikrolkkk
(PID.TID 0000.0001) //     30 eegkloollnkgeegkw..................................................+++.xkiiuokieegiltvz+................onkkieeeeeieeeeegggebbbbeeegggggggiqiggiggeeeeeegbbeieeeeeeegeeek+.............+rieeeerieeeeeeebbeggiikonnlnggeeeosoosrqlkii
(PID.TID 0000.0001) //     29 egilolkiingeegoiw..................................................++zzkigirolkgeeek++......++.........toqkiieebbeieebbeeeeebbbbeeeeggggggiwgggkgeeeeeeeibbbkbbbbbbbeeegw...............+ogbbe+ogbbeeebbbiliiiilronknnkiigirtqnnroii
(PID.TID 0000.0001) //     28 eginiiggggeeekii....................................................+yykiginlqkgeeegywyz....+++........tokiiigebebigebebbeeebbbbeeeeggeeegwkgggleeeeebbblibbbbbb---ebegl+................+kbbb.+kbbbebbbgeiiggikgebbegebbgiktonlkknn
(PID.TID 0000.0001) //     27 egikieebbeeegilt...................................................++wliiggolskggiggikluw....++........znkiiiggeebiggeebbebebbbbeegegieeegilggggeeebbbbbtgebbbbb---ebit+.................+zgb-.+zgb---btlllngkgebbbbeebbboiikolkgggg
(PID.TID 0000.0001) //     26 egligebbbbeegk+...............................rrw..................zwlgglggtnotkkiggiklllsy++++.........kkiggggebbgggebbbebbeeebbeeeggeeeegiggeebbbbbbbbvgeeegeb---bbyy+..................+sb-..+sb---oru+loggeebbbbeebbeiliikigeeee
(PID.TID 0000.0001) //     25 eikiebbbbbeekq................................nno+................+tbbbbbggikwrrliiikklllry.++.........okkigeeeebbeeeebbbbbbgeebbeegggeeeeegggeebbbbbbbezygeeeggebbbwgg...................++nb..++nbbookklqlgeeeekeeeebbeegggggeeeee
(PID.TID 0000.0001) //     24 egkiebbegeegky................................llln+.....++.....++youbbb--igggllnrollnnnuqry+...........okiggeeeebbeeeebb--bbgoebbegokeeeeeeegeeebbbbeeee++sgeeeeebbbygg...................+++x..+++xxsskkqnggeeegklgeeeeeeeggggeeeeg
(PID.TID 0000.0001) //     23 gklieeeeegilly..............................ulkkkls+...qqq+....+skk+geb--ggeeiinllnnrtoq..zzz..........tkigeeeebb-eeebb---bgigbbbeogeeegiegeeebbbbbeeegg..+sgeeeebbi.ii..........yiio.......++....++zzkkkskggggkyzyntieeeeeeggoigggg
(PID.TID 0000.0001) //     22 eglieebbbegik+......................ts....tsoliiiik+..nnnoy....yskkk.bbbeieeeeiggiklnqtqz..zyy+.........yigeeebbb-eebbb--ebglebbbigeeeginleeebbbbbbeeeee...+oieeebbwqnl.........zggiiiiu.....+.....+zykkytkiggi+.....znneeeeggyoiiii
(PID.TID 0000.0001) //     21 eeeleebbbbeeg+......................ty....tykkiiiiit..llllzz...wrkkz.bbbeiikgeeiggknoqwtz...yy+.++zz+....+zgeebbb-eebbb--bbgnebbeeebbbbgieeebbbbbbbeeeee....+qkkggz.wlln.......wngggiiiiii+...ii+....+kkk.wllny........zigggokyrkiii
(PID.TID 0000.0001) //     20 eeegkgebbbeegy.......................i.....iiniiggir..kkllwy...wrrt.++bbelkgkeegggnvqqwzz....+.zyokkn......gebbbbbebbbbb--bngleeegbbbbbeggeebbbbbeeeeeee.......yyy.ssvnn.ooy.+ggglggiiliiiknlliiknllkiiik.yyyyy.........niiioyollllo
(PID.TID 0000.0001) //     19 kggggkliiggkeel.....................yi....yiiiniggisryiikluy.++ytt.+zvbbliirwqggnzwvvv.ww....++tkkkkn..+++z+ebb--eebb--e--belleebbbbbbbeiieebbbbbbbgneee...........rry+.rnnskiggggniiiikiikkiiiikkiiggggiy..yy..........qkkntkkkllnk
(PID.TID 0000.0001) //     18 +oikggklkiigeeggggginv..............ke....keegglkkkzliiiinu..++++..iivggniio..ii+++yyyttuuz..yutkkktz+++++nyeb---beb---bbeeeeenebbbbebbbgirwwegbbbbgseee........+nntrw.vrnnokiggggillkkiiiliggiiliggeeeeiky.............zkktgggiknlk
(PID.TID 0000.0001) //     17 .+tiiiiinkkieeggeeegin.............kee...keeegginkksgggglggv..++...iiwziiiin........zvoornnonllnroowz++.+zkkwe---bwe---bkekebbkebbbbbbbbgqrwwwtvbbikygge........+nn+..zllrsliiiiggiilkkiikkigeikkigeeeeegiy..............lkggggiknlk
(PID.TID 0000.0001) //     16 ..++kiigeeeeikiieeegil............kgee..kgeegggiknogeegglgggz.++.....vw.vqll......++zvooqnnrnlllsqry++..+lkkxebbbbxebbbbleebbbnibbbbbebbgoo+niiirrnnyvse.........oos..kkkkqliiikggiiokkklkiggelkiggeeeeeggn..............rigggikknli
(PID.TID 0000.0001) //     15 .....+kgebbegilkgggeegr..........nigee.nigeeniikinkeeeeekgggg+......xnnn..........++..zwrr+.wlllltw+++...lkvgebbbegebbbekee--liebbbeegegeoqnniiilt..yvwt.........tss.zkkkkokkikkiiiilkklkiigggkiigggeeeeegky.............wiiiikknlki
(PID.TID 0000.0001) //     14 ......webbbegilkiggeegk+.........niggi.niggirtiiinteeeeeneegbbq....+ynnny...............+zzz+ynllt+++....yrikligbbkligbbibb--bnbbbeiiigeennnqkkrsztx..yy..........yy.lkkkkokkiikkiiiokkliiiiggiiiiggggeeegkw.............liggiklnkig
(PID.TID 0000.0001) //     13 ......uebbbbgknkggbbbegs.........okiii.okiiiiizkknleeeegkeegbbegikkt+.yyz................zzzzz++tt+.......nibbbebebbbebebbb--bbbbllggikggnnwqutoqttniiis.............llllnlnkiiikiiilkkkiiiiiiiiiiiiiggeeegon...........ykgggkknkigg
(PID.TID 0000.0001) //     12 .....+ggbbbbgilkgebbbbgs.........onnng.onnnggiiwlkgeeeegqbbggeeiebbqy++++................zzz.++++++.....++.nbbbbeebbbbeeb-b--bgeeiggggniitvn+nnuturggggg............onnnnlkkniiiiiiilkklkkkkkkkkkkkkkigeeegiiikqyy......ligggknkiigg
(PID.TID 0000.0001) //     11 .....wggebbbginkkeebbbi..........ooo.g.ooo.gggizokgeeeeeqbbe--bbibbq+++..................+++++..........zzy.bebbbebebbbeb--bbbeeiggggglnllkktnttusgggggg...........nnlllkkkklkkkkiiklnllllnnnnllnnnnkkggeeegiiiioy.....yiggggiliigge
(PID.TID 0000.0001) //     10 .....yigebbegknngeebbei.........yrr.+gyrr.+gggqqnkiggeeeree---bbgqrz....................................zxvvwbbbbbwbbbbbkb--egbbelgiikowlnkkttnonggggggg..........nnnllnkkkkknlkkkkklnnnnnllllnnlllloniigeegiiiikoqyyyokgeeggikiggge
(PID.TID 0000.0001) //      9 .....triebbbeinkgeeeenqz.......zoor.kgoor.kggikilokggeengeb--beerz+.....................................zxvvvbbbbbvbbbbbbg--bebbbbgnnrs+ornnvoiigggggggg.........zlllkkkiikiiklnllllonllkkkkkkkkkkkkkkkkigggiiikknnonliigeeggkiggeee
(PID.TID 0000.0001) //      8 ....zligebbbeilkgeeegqgr.......nnnr.ignnr.iggigiikniiggnggbbbeeku.........................................+vyeeb--yeeb------ebb--bikoos+okkoooiigggggiln......zskkkkkiiiiiiiiiklnnlnnllkiiiiiiiiiiiiiiiilkkklnnoonqonliiiiiikiggeeeg
(PID.TID 0000.0001) //      7 ..+xnkigeeeeginkggeenggn......+nkkl.iekkl.ieeeegilnniiglggeekeegv............................................keb--.keb------bbb--bkgggstyggqyz....+++.ogou..+wnliikkkiiiiiiiiiikkkkllkkkiiggggiiggggggggnnnnnkkkiiilonnkkkklkgeeebbg
(PID.TID 0000.0001) //      6 .+yoniiggeeeginkiggneeel+.....skggirieggirieeeegliiiliiilrtoggeen............................................teb--.teb-----bbie--bkgggy.+ggy+.......++ggnoliiiiiiiiiiiiiiiiiggikkkkklkkkiigggeiigggeeeegkkkkkigggeeeilknnnnkggeebbbi
(PID.TID 0000.0001) //      5 .znkkiikngggikniiikgeeelz....oreegirkeegirkeeeelggginkkkqiirkeeen..........................................oo+wgbbo+wgbb--kbbeebberglgw..ssw.........keeknggggiiggiiigggggggggiikkkklkkiiigeeeiigeeeeeeggiiiggeeeeeeiliiikiigeebbbbi
(PID.TID 0000.0001) //      4 +rlkkinuknggilniikgeeeegq++zkkreegqrkgegqrkgggnggggiinkkkiiggeeln..........................................oor.+bbor.+bbbbbnqrqtglqggkt..............eeekgeeegiggiggiggggggggggiikkkkkiiiigeeeiigeeeebbeeggggeeeeeeullggrigggebbbbbq
(PID.TID 0000.0001) //      3 rliigggggkiiiknkligeeeeggkkiikoeeesokieesokiingeeggiiokkkiigggeeeggiiqz+..................................zoor+.yuor+.yurnotigeekgronl...............ebbigeeeggggggggeeggggggggiiiiikiiiikggeeikggeeebbbeegeeeeeeetysggggnggeebbbbqz
(PID.TID 0000.0001) //      2 igggeeeeggiiiknniigeeegeeeniikeeeevokieevokiingeeegiilnlllkiggggeebbbbqy+.................................zoovz.tiovz.tiiigggggeikiiil..............+ebbeeeeegggggeeeeeegggggggiiiiikiiiigggeeigggeeebbbbegeeeeegswyigggglogeebbbqy+
(PID.TID 0000.0001) //      1 eeeeeeeeeeggiknkiiiggggeeeoiieeeegnnkkegnnkkokgeeegiillnnnlkiiggeebbbbbq+++...............................zsswz.tiswz.tigggggigiiliiiq..............+lbbeeeeeggiggeeeeeegggggggiiikikiiiggggeeggggeeebbbbeeeeeeegvv.iggggi.+keeel++.
(PID.TID 0000.0001) //      0 ...eeeeeeegggiknliiggggegebbeeeggln......nllrkgeeegikllkkknnkiiggeebbbbbl...............................++.zz+........+kiiilb--eeelniv.yz+.........++......eeeigggeeeeeeggigggiiiioiiiigggg......geeeebbbeeeeensyyy.iggggg++...++...
(PID.TID 0000.0001) //     -1 ...eeeeeeeeeggiknkiikgggeebbggikrol......loqnlkgeeiorlkiikklnkiiggeebbbbe...............................++.++.+......+.xkkigb--bbbbgi.nny+........+yq......eeeiggeeeeeeeeggggioiioiiiiiggge......ggeeebbbbeeeeggkn.xnggggg+.........
(PID.TID 0000.0001) //     -2 ...eeeeeebbeggiikonnlnggeeeosoosrql......grrnnliggoyyokggikkknlkigeeebbbe................................+++.xk......z+.zylgbbbbbbbgzwnny++.......zqb......eeegggebbbbeeegggggggiqiggiggeee......ggeeeebbbbbbebbin.ttrgggg+.........
(PID.TID 0000.0001) // =======================================================
(PID.TID 0000.0001) // END OF FIELD                                          =
(PID.TID 0000.0001) // =======================================================
(PID.TID 0000.0001) 
(PID.TID 0000.0001) // =======================================================
(PID.TID 0000.0001) // Field Model Ro_surf (ini_masks_etc) at iteration          1
(PID.TID 0000.0001) // CMIN =          1.000000000000000E+32
(PID.TID 0000.0001) // CMAX =         -1.000000000000000E+32
(PID.TID 0000.0001) // CINT =          0.000000000000000E+00
(PID.TID 0000.0001) // SYMBOLS (CMIN->CMAX): -abcdefghijklmnopqrstuvwxyz+
(PID.TID 0000.0001) //                  0.0: .
(PID.TID 0000.0001) // RANGE I (Lo:Hi:Step):(  -2: 195:   1)
(PID.TID 0000.0001) // RANGE J (Lo:Hi:Step):(  35:  -2:  -1)
(PID.TID 0000.0001) // RANGE K (Lo:Hi:Step):(   1:   1:   1)
(PID.TID 0000.0001) // =======================================================
(PID.TID 0000.0001) K =   1
(PID.TID 0000.0001) //                I=7       I=17      I=27      I=31      I=41      I=51      I=61      I=65      I=75      I=85      I=95      I=99      I=109     I=119     I=129     I=133     I=143     I=153     I=163     I=167     I=177     I=187
(PID.TID 0000.0001) // |--J--|**0123456|890123456|890123456|890123450|234567890|234567890|234567890|234567234|678901234|678901234|678901234|678945678|012345678|012345678|012345678|016789012|456789012|456789012|456789012|890123456|890123456|890123456|89012345
(PID.TID 0000.0001) //     35 ....................................................................................................................................................................................................................................
(PID.TID 0000.0001) //     34 ....................................................................................................................................................................................................................................
(PID.TID 0000.0001) //     33 ....................................................................................................................................................................................................................................
(PID.TID 0000.0001) //     32 ....................................................................................................................................................................................................................................
(PID.TID 0000.0001) //     31 ....................................................................................................................................................................................................................................
(PID.TID 0000.0001) //     30 ....................................................................................................................................................................................................................................
(PID.TID 0000.0001) //     29 ....................................................................................................................................................................................................................................
(PID.TID 0000.0001) //     28 ....................................................................................................................................................................................................................................
(PID.TID 0000.0001) //     27 ....................................................................................................................................................................................................................................
(PID.TID 0000.0001) //     26 ....................................................................................................................................................................................................................................
(PID.TID 0000.0001) //     25 ....................................................................................................................................................................................................................................
(PID.TID 0000.0001) //     24 ....................................................................................................................................................................................................................................
(PID.TID 0000.0001) //     23 ....................................................................................................................................................................................................................................
(PID.TID 0000.0001) //     22 ....................................................................................................................................................................................................................................
(PID.TID 0000.0001) //     21 ....................................................................................................................................................................................................................................
(PID.TID 0000.0001) //     20 ....................................................................................................................................................................................................................................
(PID.TID 0000.0001) //     19 ....................................................................................................................................................................................................................................
(PID.TID 0000.0001) //     18 ....................................................................................................................................................................................................................................
(PID.TID 0000.0001) //     17 ....................................................................................................................................................................................................................................
(PID.TID 0000.0001) //     16 ....................................................................................................................................................................................................................................
(PID.TID 0000.0001) //     15 ....................................................................................................................................................................................................................................
(PID.TID 0000.0001) //     14 ....................................................................................................................................................................................................................................
(PID.TID 0000.0001) //     13 ....................................................................................................................................................................................................................................
(PID.TID 0000.0001) //     12 ....................................................................................................................................................................................................................................
(PID.TID 0000.0001) //     11 ....................................................................................................................................................................................................................................
(PID.TID 0000.0001) //     10 ....................................................................................................................................................................................................................................
(PID.TID 0000.0001) //      9 ....................................................................................................................................................................................................................................
(PID.TID 0000.0001) //      8 ....................................................................................................................................................................................................................................
(PID.TID 0000.0001) //      7 ....................................................................................................................................................................................................................................
(PID.TID 0000.0001) //      6 ....................................................................................................................................................................................................................................
(PID.TID 0000.0001) //      5 ....................................................................................................................................................................................................................................
(PID.TID 0000.0001) //      4 ....................................................................................................................................................................................................................................
(PID.TID 0000.0001) //      3 ....................................................................................................................................................................................................................................
(PID.TID 0000.0001) //      2 ....................................................................................................................................................................................................................................
(PID.TID 0000.0001) //      1 ....................................................................................................................................................................................................................................
(PID.TID 0000.0001) //      0 ....................................................................................................................................................................................................................................
(PID.TID 0000.0001) //     -1 ....................................................................................................................................................................................................................................
(PID.TID 0000.0001) //     -2 ....................................................................................................................................................................................................................................
(PID.TID 0000.0001) // =======================================================
(PID.TID 0000.0001) // END OF FIELD                                          =
(PID.TID 0000.0001) // =======================================================
(PID.TID 0000.0001) 
(PID.TID 0000.0001) // =======================================================
(PID.TID 0000.0001) // Field hFacC at iteration          1
(PID.TID 0000.0001) // CMIN =          1.000000000000000E+00
(PID.TID 0000.0001) // CMAX =          1.000000000000000E+00
(PID.TID 0000.0001) // CINT =          0.000000000000000E+00
(PID.TID 0000.0001) // SYMBOLS (CMIN->CMAX): -abcdefghijklmnopqrstuvwxyz+
(PID.TID 0000.0001) //                  0.0: .
(PID.TID 0000.0001) // RANGE I (Lo:Hi:Step):(  -2: 195:   1)
(PID.TID 0000.0001) // RANGE J (Lo:Hi:Step):(  35:  -2:  -1)
(PID.TID 0000.0001) // RANGE K (Lo:Hi:Step):(   1:   1:   1)
(PID.TID 0000.0001) // =======================================================
(PID.TID 0000.0001) K =   1
(PID.TID 0000.0001) //                I=7       I=17      I=27      I=31      I=41      I=51      I=61      I=65      I=75      I=85      I=95      I=99      I=109     I=119     I=129     I=133     I=143     I=153     I=163     I=167     I=177     I=187
(PID.TID 0000.0001) // |--J--|**0123456|890123456|890123456|890123450|234567890|234567890|234567890|234567234|678901234|678901234|678901234|678945678|012345678|012345678|012345678|016789012|456789012|456789012|456789012|890123456|890123456|890123456|89012345
(PID.TID 0000.0001) //     35 ...---------------..................................................-----......------------.............-------......--------------------------------......------------------..------------......--------------------------------...
(PID.TID 0000.0001) //     34 ...---------------..................................................-----......------------.............-------......--------------------------------......-----------------.......--------......--------------------------------...
(PID.TID 0000.0001) //     33 ...---------------..................................................-----......-----------...............------......--------------------------------......-----------------........-------......--------------------------------...
(PID.TID 0000.0001) //     32 ------------------................................................--.---....-------------................-------------------------------------------------------------------........------------------------------------------------
(PID.TID 0000.0001) //     31 -----------------.................................................--.--.----------------................-------------------------------------------------------------------..........-----------------------------------------------
(PID.TID 0000.0001) //     30 -----------------..................................................---.-----------------................------------------------------------------------------------------.............---------------------------------------------
(PID.TID 0000.0001) //     29 -----------------..................................................-------------------......--.........------------------------------------------------------------------...............--------------------------------------------
(PID.TID 0000.0001) //     28 ----------------....................................................--------------------....---........------------------------------------------------------------------................-----.-------------------------------------
(PID.TID 0000.0001) //     27 ----------------...................................................----------------------....--........-----------------------------------------------------------------.................-----.-------------------------------------
(PID.TID 0000.0001) //     26 ---------------...............................---..................----------------------------.........----------------------------------------------------------------..................----..------------------------------------
(PID.TID 0000.0001) //     25 --------------................................----................-------------------------.--.........----------------------------------------------------------------...................----..------------------------------------
(PID.TID 0000.0001) //     24 --------------................................-----.....--.....-----------------------------...........----------------------------------------------------------------...................----..------------------------------------
(PID.TID 0000.0001) //     23 --------------..............................--------...----....-------------------------..---..........-------------------------------------------------..----------.--..........----.......--....----------------------------------
(PID.TID 0000.0001) //     22 --------------......................--....----------..-----....-----.--------------------..----.........------------------------------------------------...------------.........--------.....-.....-------------.....---------------
(PID.TID 0000.0001) //     21 --------------......................--....----------..------...-----.--------------------...---.-----....-----------------------------------------------....-------.----.......------------...---....----.-----........-------------
(PID.TID 0000.0001) //     20 --------------.......................-.....---------..------...----.---------------------....-.------......---------------------------------------------.......---.-----.---.----------------------------.-----.........------------
(PID.TID 0000.0001) //     19 ---------------.....................--....------------------.-----.-------------------.--....--------..-------------------------------------------------...........----.----------------------------------..--..........------------
(PID.TID 0000.0001) //     18 ----------------------..............--....-----------------..----..---------..-------------..-----------------------------------------------------------........------.------------------------------------.............------------
(PID.TID 0000.0001) //     17 .---------------------.............---...-------------------..--...---------........-------------------.------------------------------------------------........----..-------------------------------------..............-----------
(PID.TID 0000.0001) //     16 ..--------------------............----..---------------------.--.....--.----......--------------------..------------------------------------------------.........---..-------------------------------------..............-----------
(PID.TID 0000.0001) //     15 .....------------------..........-----.-----------------------......----..........--..-----.----------...-----------------------------------------..----.........---.---------------------------------------.............-----------
(PID.TID 0000.0001) //     14 ......------------------.........-----.------------------------....------...............-------------....-------------------------------------------..--..........--.---------------------------------------.............-----------
(PID.TID 0000.0001) //     13 ......------------------.........-----.------------------------------.---................----------.......----------------------------------------------.............----------------------------------------...........------------
(PID.TID 0000.0001) //     12 .....-------------------.........-----.----------------------------------................---.------.....--.---------------------------------------------............----------------------------------------------......------------
(PID.TID 0000.0001) //     11 .....------------------..........---.-.---.----------------------------..................-----..........---.--------------------------------------------...........-----------------------------------------------.....-------------
(PID.TID 0000.0001) //     10 .....------------------.........---.-----.--------------------------....................................------------------------------------------------..........------------------------------------------------------------------
(PID.TID 0000.0001) //      9 .....-------------------.......----.-----.-------------------------.....................................------------------------------------------------.........-------------------------------------------------------------------
(PID.TID 0000.0001) //      8 ....--------------------.......----.-----.-----------------------.........................................----------------------------------------------......----------------------------------------------------------------------
(PID.TID 0000.0001) //      7 ..----------------------......-----.-----.-----------------------............................................-----.---------------------------....---.----..------------------------------------------------------------------------
(PID.TID 0000.0001) //      6 .------------------------.....-----------------------------------............................................-----.--------------------.-----.......--------------------------------------------------------------------------------
(PID.TID 0000.0001) //      5 .------------------------....------------------------------------..........................................----------------------------..---.........-------------------------------------------------------------------------------
(PID.TID 0000.0001) //      4 -----------------------------------------------------------------..........................................---.-----.------------------..............-------------------------------------------------------------------------------
(PID.TID 0000.0001) //      3 ------------------------------------------------------------------------..................................-----.-----.----------------...............-------------------------------------------------------------------------------
(PID.TID 0000.0001) //      2 -------------------------------------------------------------------------.................................-----.-----.----------------..............--------------------------------------------------------------------------------
(PID.TID 0000.0001) //      1 ---------------------------------------------------------------------------...............................-----.-----.----------------..............---------------------------------------------------------------.------.--------.
(PID.TID 0000.0001) //      0 ...--------------------------------......--------------------------------...............................--.---........----------------.---.........--......--------------------------------......------------------.--------...--...
(PID.TID 0000.0001) //     -1 ...--------------------------------......--------------------------------...............................--.--.-......-.--------------.----........---......--------------------------------......-----------------.--------.........
(PID.TID 0000.0001) //     -2 ...--------------------------------......--------------------------------................................---.--......--.-------------------.......---......--------------------------------......-----------------.--------.........
(PID.TID 0000.0001) // =======================================================
(PID.TID 0000.0001) // END OF FIELD                                          =
(PID.TID 0000.0001) // =======================================================
(PID.TID 0000.0001) 
(PID.TID 0000.0001) // =======================================================
(PID.TID 0000.0001) // Field hFacW at iteration          1
(PID.TID 0000.0001) // CMIN =          1.000000000000000E+00
(PID.TID 0000.0001) // CMAX =          1.000000000000000E+00
(PID.TID 0000.0001) // CINT =          0.000000000000000E+00
(PID.TID 0000.0001) // SYMBOLS (CMIN->CMAX): -abcdefghijklmnopqrstuvwxyz+
(PID.TID 0000.0001) //                  0.0: .
(PID.TID 0000.0001) // RANGE I (Lo:Hi:Step):(  -2: 195:   1)
(PID.TID 0000.0001) // RANGE J (Lo:Hi:Step):(  35:  -2:  -1)
(PID.TID 0000.0001) // RANGE K (Lo:Hi:Step):(   1:   1:   1)
(PID.TID 0000.0001) // =======================================================
(PID.TID 0000.0001) K =   1
(PID.TID 0000.0001) //                I=7       I=17      I=27      I=31      I=41      I=51      I=61      I=65      I=75      I=85      I=95      I=99      I=109     I=119     I=129     I=133     I=143     I=153     I=163     I=167     I=177     I=187
(PID.TID 0000.0001) // |--J--|**0123456|890123456|890123456|890123450|234567890|234567890|234567890|234567234|678901234|678901234|678901234|678945678|012345678|012345678|012345678|016789012|456789012|456789012|456789012|890123456|890123456|890123456|89012345
(PID.TID 0000.0001) //     35 ...---------------...................................................----......------------..............-------.....---------------------------------.....------------------...------------.....---------------------------------..
(PID.TID 0000.0001) //     34 ...---------------...................................................----......------------..............-------.....---------------------------------.....-----------------........--------.....---------------------------------..
(PID.TID 0000.0001) //     33 ...---------------...................................................----......-----------................------.....---------------------------------.....-----------------.........-------.....---------------------------------..
(PID.TID 0000.0001) //     32 ------------------.................................................-..--....-------------.................------------------------------------------------------------------.........-----------------------------------------------
(PID.TID 0000.0001) //     31 -----------------..................................................-..-..---------------.................------------------------------------------------------------------...........----------------------------------------------
(PID.TID 0000.0001) //     30 -----------------...................................................--..----------------.................-----------------------------------------------------------------..............--------------------------------------------
(PID.TID 0000.0001) //     29 -----------------...................................................------------------.......-..........-----------------------------------------------------------------................-----.-------------------------------------
(PID.TID 0000.0001) //     28 ----------------.....................................................-------------------.....--.........-----------------------------------------------------------------.................----..------------------------------------
(PID.TID 0000.0001) //     27 ----------------....................................................---------------------.....-.........----------------------------------------------------------------..................----..------------------------------------
(PID.TID 0000.0001) //     26 ---------------................................--...................---------------------------..........---------------------------------------------------------------...................---...-----------------------------------
(PID.TID 0000.0001) //     25 --------------.................................---.................------------------------..-..........------------------------------------------------.--------------....................---...-----------------------------------
(PID.TID 0000.0001) //     24 --------------.................................----......-......----------------------------............------------------------------------------------.--------------....................---...-----------------------------------
(PID.TID 0000.0001) //     23 --------------...............................-------....---.....------------------------...--...........------------------------------------------------...---------..-...........---........-.....---------------------------------
(PID.TID 0000.0001) //     22 --------------.......................-.....---------...----.....----..-------------------...---..........-----------------------------------------------....-----------..........-------............------------......--------------
(PID.TID 0000.0001) //     21 --------------.......................-.....---------...-----....----..-------------------....--..----.....----------------------------------------------.....------..---........-----------...---.....---..----.........------------
(PID.TID 0000.0001) //     20 --------------..............................--------...-----....---..--------------------.......-----.......--------------------------------------------........--..----..--..---------------------------..----..........-----------
(PID.TID 0000.0001) //     19 ---------------......................-.....-----------------..----..------------------..-.....-------...------------------------------------------------............---..---------------------------------...-...........-----------
(PID.TID 0000.0001) //     18 .---------------------...............-.....----------------...---...--------...------------...----------------------------------------------------------.........-----..-----------------------------------..............-----------
(PID.TID 0000.0001) //     17 ..--------------------..............--....------------------...-....--------.........------------------..-----------------------------------------------.........---...------------------------------------...............----------
(PID.TID 0000.0001) //     16 ...-------------------.............---...--------------------..-......-..---.......-------------------...-----------------------------------------------..........--...------------------------------------...............----------
(PID.TID 0000.0001) //     15 ......-----------------...........----..----------------------.......---...........-...----..---------....----------------------------------------...---..........--..--------------------------------------..............----------
(PID.TID 0000.0001) //     14 .......-----------------..........----..-----------------------.....-----................------------.....------------------------------------------...-...........-..--------------------------------------..............----------
(PID.TID 0000.0001) //     13 .......-----------------..........----..-----------------------------..--.................---------........---------------------------------------------..............---------------------------------------............-----------
(PID.TID 0000.0001) //     12 ......------------------..........----..---------------------------------.................--..-----......-..--------------------------------------------.............---------------------------------------------.......-----------
(PID.TID 0000.0001) //     11 ......-----------------...........--....--..---------------------------...................----...........--..-----.-------------------------------------............----------------------------------------------......------------
(PID.TID 0000.0001) //     10 ......-----------------..........--..-.--..-------------------------.....................................-----------------------------------------------...........-----------------------------------------------------------------
(PID.TID 0000.0001) //      9 ......------------------........---..----..------------------------......................................-----------------------------------------------..........------------------------------------------------------------------
(PID.TID 0000.0001) //      8 .....-------------------........---..----..----------------------..........................................---------------------------------------------.......---------------------------------------------------------------------
(PID.TID 0000.0001) //      7 ...---------------------.......----..----..----------------------.............................................----..--------------------------.....--..---...-----------------------------------------------------------------------
(PID.TID 0000.0001) //      6 ..-----------------------......----------------------------------.............................................----..-------------------..----........-------------------------------------------------------------------------------
(PID.TID 0000.0001) //      5 ..-----------------------.....-----------------------------------...........................................---------------------------...--..........------------------------------------------------------------------------------
(PID.TID 0000.0001) //      4 .----------------------------------------------------------------...........................................--..----..-----------------...............------------------------------------------------------------------------------
(PID.TID 0000.0001) //      3 ------------------------------------------------------------------------...................................----..----..---------------................------------------------------------------------------------------------------
(PID.TID 0000.0001) //      2 -------------------------------------------------------------------------..................................----..----..---------------...............-------------------------------------------------------------------------------
(PID.TID 0000.0001) //      1 ---------------------------------------------------------------------------................................----..----..---------------...............--------------------------------------------------------------..-----..-------.
(PID.TID 0000.0001) //      0 ...---------------------------------.....---------------------------------...............................-..--.........---------------..--..........--.....---------------------------------.....------------------..-------....--..
(PID.TID 0000.0001) //     -1 ...---------------------------------.....---------------------------------...............................-..-..-.....-..-------------..---.........---.....---------------------------------.....-----------------..-------.........
(PID.TID 0000.0001) //     -2 ...---------------------------------.....--------------------------------.................................--..--.....--..------------------........---.....---------------------------------.....-----------------..-------.........
(PID.TID 0000.0001) // =======================================================
(PID.TID 0000.0001) // END OF FIELD                                          =
(PID.TID 0000.0001) // =======================================================
(PID.TID 0000.0001) 
(PID.TID 0000.0001) // =======================================================
(PID.TID 0000.0001) // Field hFacS at iteration          1
(PID.TID 0000.0001) // CMIN =          1.000000000000000E+00
(PID.TID 0000.0001) // CMAX =          1.000000000000000E+00
(PID.TID 0000.0001) // CINT =          0.000000000000000E+00
(PID.TID 0000.0001) // SYMBOLS (CMIN->CMAX): -abcdefghijklmnopqrstuvwxyz+
(PID.TID 0000.0001) //                  0.0: .
(PID.TID 0000.0001) // RANGE I (Lo:Hi:Step):(  -2: 195:   1)
(PID.TID 0000.0001) // RANGE J (Lo:Hi:Step):(  35:  -2:  -1)
(PID.TID 0000.0001) // RANGE K (Lo:Hi:Step):(   1:   1:   1)
(PID.TID 0000.0001) // =======================================================
(PID.TID 0000.0001) K =   1
(PID.TID 0000.0001) //                I=7       I=17      I=27      I=31      I=41      I=51      I=61      I=65      I=75      I=85      I=95      I=99      I=109     I=119     I=129     I=133     I=143     I=153     I=163     I=167     I=177     I=187
(PID.TID 0000.0001) // |--J--|**0123456|890123456|890123456|890123450|234567890|234567890|234567890|234567234|678901234|678901234|678901234|678945678|012345678|012345678|012345678|016789012|456789012|456789012|456789012|890123456|890123456|890123456|89012345
(PID.TID 0000.0001) //     35 ...---------------..................................................-----......------------.............-------......--------------------------------......-----------------.......--------......--------------------------------...
(PID.TID 0000.0001) //     34 ...---------------..................................................-----......-----------...............------......--------------------------------......-----------------........-------......--------------------------------...
(PID.TID 0000.0001) //     33 ------------------...................................................---....-------------................-------------------------------------------------------------------........------------------------------------------------
(PID.TID 0000.0001) //     32 -----------------.................................................--.--.....------------.................------------------------------------------------------------------..........-----------------------------------------------
(PID.TID 0000.0001) //     31 -----------------..................................................-.-..----------------................------------------------------------------------------------------.............---------------------------------------------
(PID.TID 0000.0001) //     30 -----------------..................................................---.---------------..................-----------------------------------------------------------------...............--------------------------------------------
(PID.TID 0000.0001) //     29 ----------------....................................................------------------......--.........------------------------------------------------------------------................-----.-------------------------------------
(PID.TID 0000.0001) //     28 ----------------....................................................--------------------.....--........-----------------------------------------------------------------.................-----.-------------------------------------
(PID.TID 0000.0001) //     27 ---------------....................................................----------------------....--.........----------------------------------------------------------------..................----..------------------------------------
(PID.TID 0000.0001) //     26 --------------................................---..................------------------------.--..........---------------------------------------------------------------...................----..------------------------------------
(PID.TID 0000.0001) //     25 --------------................................----................-------------------------............----------------------------------------------------------------...................----..------------------------------------
(PID.TID 0000.0001) //     24 --------------................................-----.....--.....-------------------------..--...........-------------------------------------------------..----------.--.....................--....----------------------------------
(PID.TID 0000.0001) //     23 --------------..............................--------...----....-----.-------------------...--...........------------------------------------------------...---------.--..........----........-.....-------------.....---------------
(PID.TID 0000.0001) //     22 --------------......................--....----------..-----....-----.--------------------...---..........-----------------------------------------------....-------.---.........--------.............----.-----........-------------
(PID.TID 0000.0001) //     21 --------------.......................-.....---------..------...----..--------------------....-..-----......---------------------------------------------.......---..----.......------------...---....----.-----.........------------
(PID.TID 0000.0001) //     20 --------------.......................-.....---------..------...---..------------------.--....-.------......---------------------------------------------...........----..---.----------------------------...--..........------------
(PID.TID 0000.0001) //     19 ---------------.....................--....-----------------..----..---------..--------.--....--------..-------------------------------------------------...........---..----------------------------------..............------------
(PID.TID 0000.0001) //     18 .---------------------..............--....-----------------...--...---------........-------..----------.------------------------------------------------........----...------------------------------------..............-----------
(PID.TID 0000.0001) //     17 ..--------------------.............---...-------------------..--.....--.----........------------------..------------------------------------------------.........---..-------------------------------------..............-----------
(PID.TID 0000.0001) //     16 .....-----------------............----..---------------------........--...........--..-----.----------...-----------------------------------------..----.........---..-------------------------------------..............-----------
(PID.TID 0000.0001) //     15 ......-----------------..........-----.-----------------------......----................---.---------....-----------------------------------------....--..........--.---------------------------------------.............-----------
(PID.TID 0000.0001) //     14 ......------------------.........-----.------------------------....--.---................----------.......------------------------------------------..--.............---------------------------------------.............-----------
(PID.TID 0000.0001) //     13 ......------------------.........-----.------------------------------.---................---.------........---------------------------------------------.............----------------------------------------...........------------
(PID.TID 0000.0001) //     12 .....------------------..........---.-.---.----------------------------..................---.-..........--..--------------------------------------------............----------------------------------------------......------------
(PID.TID 0000.0001) //     11 .....------------------..........--..-.--..-------------------------....................................---.--------------------------------------------...........-----------------------------------------------.....-------------
(PID.TID 0000.0001) //     10 .....------------------.........---.-----.-------------------------.....................................------------------------------------------------..........------------------------------------------------------------------
(PID.TID 0000.0001) //      9 .....-------------------.......----.-----.-----------------------.........................................----------------------------------------------.........-------------------------------------------------------------------
(PID.TID 0000.0001) //      8 ....--------------------.......----.-----.-----------------------............................................-----.---------------------------....---.--......----------------------------------------------------------------------
(PID.TID 0000.0001) //      7 ..----------------------......-----.-----.-----------------------............................................-----.--------------------.-----.......-.----..------------------------------------------------------------------------
(PID.TID 0000.0001) //      6 .------------------------.....-----------------------------------............................................-----.--------------------..---.........-------------------------------------------------------------------------------
(PID.TID 0000.0001) //      5 .------------------------....------------------------------------..........................................---.-----.------------------..............-------------------------------------------------------------------------------
(PID.TID 0000.0001) //      4 -----------------------------------------------------------------..........................................---..----..----------------...............-------------------------------------------------------------------------------
(PID.TID 0000.0001) //      3 ------------------------------------------------------------------------..................................-----.-----.----------------...............-------------------------------------------------------------------------------
(PID.TID 0000.0001) //      2 -------------------------------------------------------------------------.................................-----.-----.----------------..............---------------------------------------------------------------.------.--------.
(PID.TID 0000.0001) //      1 ---------------------------------------------------------------------------................................---..----..----------------..............---------------------------------------------------------------.------.-...---..
(PID.TID 0000.0001) //      0 ...--------------------------------......--------------------------------...............................--.--..........--------------..---.........--......--------------------------------......-----------------..-------.........
(PID.TID 0000.0001) //     -1 ...--------------------------------......--------------------------------................................-.-..-......-..-------------.----........---......--------------------------------......-----------------.--------.........
(PID.TID 0000.0001) //     -2 ...--------------------------------......--------------------------------................................---.--......--.----------------.--.......---......--------------------------------......-----------------.-------..........
(PID.TID 0000.0001) // =======================================================
(PID.TID 0000.0001) // END OF FIELD                                          =
(PID.TID 0000.0001) // =======================================================
(PID.TID 0000.0001) 
(PID.TID 0000.0001) %MON fCori_max                    =   1.4535026394544E-04
(PID.TID 0000.0001) %MON fCori_min                    =  -1.4535026394544E-04
(PID.TID 0000.0001) %MON fCori_mean                   =  -1.2131982317444E-23
(PID.TID 0000.0001) %MON fCori_sd                     =   8.3972192788621E-05
(PID.TID 0000.0001) %MON fCoriG_max                   =   1.4544410433286E-04
(PID.TID 0000.0001) %MON fCoriG_min                   =  -1.4544410433286E-04
(PID.TID 0000.0001) %MON fCoriG_mean                  =   0.0000000000000E+00
(PID.TID 0000.0001) %MON fCoriG_sd                    =   8.4860812167726E-05
(PID.TID 0000.0001) %MON fCoriCos_max                 =   1.4540341471202E-04
(PID.TID 0000.0001) %MON fCoriCos_min                 =   5.2238162465416E-06
(PID.TID 0000.0001) %MON fCoriCos_mean                =   1.1482594764278E-04
(PID.TID 0000.0001) %MON fCoriCos_sd                  =   3.0292904637826E-05
(PID.TID 0000.0001)  PACKAGES_BOOT: opening data.pkg
(PID.TID 0000.0001)  OPEN_COPY_DATA_FILE: opening file data.pkg
(PID.TID 0000.0001) // =======================================================
(PID.TID 0000.0001) // Parameter file "data.pkg"
(PID.TID 0000.0001) // =======================================================
(PID.TID 0000.0001) ># Packages
(PID.TID 0000.0001) > &PACKAGES
(PID.TID 0000.0001) > useGMRedi=.TRUE.,
(PID.TID 0000.0001) > useBulkforce=.TRUE.,
(PID.TID 0000.0001) > useThermSeaIce=.TRUE.,
(PID.TID 0000.0001) > &
(PID.TID 0000.0001) 
(PID.TID 0000.0001)  PACKAGES_BOOT: finished reading data.pkg
(PID.TID 0000.0001)  GM_READPARMS: opening data.gmredi
(PID.TID 0000.0001)  OPEN_COPY_DATA_FILE: opening file data.gmredi
(PID.TID 0000.0001) // =======================================================
(PID.TID 0000.0001) // Parameter file "data.gmredi"
(PID.TID 0000.0001) // =======================================================
(PID.TID 0000.0001) ># GM+Redi package parameters:
(PID.TID 0000.0001) >
(PID.TID 0000.0001) >#-from MOM :
(PID.TID 0000.0001) ># GM_background_K: 	G & Mc.W  diffusion coefficient
(PID.TID 0000.0001) ># GM_maxSlope    :	max slope of isopycnals
(PID.TID 0000.0001) ># GM_Scrit       :	transition for scaling diffusion coefficient
(PID.TID 0000.0001) ># GM_Sd          :	half width scaling for diffusion coefficient
(PID.TID 0000.0001) ># GM_taper_scheme:	slope clipping or one of the tapering schemes
(PID.TID 0000.0001) ># GM_Kmin_horiz  :	horizontal diffusion minimum value
(PID.TID 0000.0001) >
(PID.TID 0000.0001) >#-Option parameters (needs to "define" options in GMREDI_OPTIONS.h")
(PID.TID 0000.0001) ># GM_isopycK     :	isopycnal diffusion coefficient (default=GM_background_K)
(PID.TID 0000.0001) ># GM_AdvForm     :	turn on GM Advective form       (default=Skew flux form)
(PID.TID 0000.0001) >
(PID.TID 0000.0001) > &GM_PARM01
(PID.TID 0000.0001) >  GM_background_K    = 800.,
(PID.TID 0000.0001) >  GM_taper_scheme    = 'dm95',
(PID.TID 0000.0001) >  GM_maxSlope        = 1.e-2,
[...]
(PID.TID 0000.0001)     29 ssssrrrrrqqqpppoo..................................................tsuuvwxxyrrrrqpomlk......ml.........ssssttuuvvvtuuvvvvvvvvvvvuvvwvvwwvvwwwxxwwvuuutttopqrrssssssssssrr...............qqrrrqqqrrrqpnmkjhfeeedcccccdefhjklmnpruvwww
(PID.TID 0000.0001)     28 sssrrrrrqqqppppo....................................................tvwxyzzzrrrqqpomlklk....mll........sssssttuuvvttuuvvvvwwwvvvvvwwwwwwwwwwxxxwvvuuutttnopqrsstsssssssss................qqqqp.qqqqpnmkihgecccbbbaaabcdegijklnpsuwww
(PID.TID 0000.0001)     27 ssrrrrrqqqqppppo...................................................uvwyzz+++rrrqponmlkjkk....ll........ssrsssttuvvsttuvvvwwwwwwvvvwwwwwwwwwxxxxwvuuuttttmnoqrstttttsssrr.................qpqpo.qpqpomkigfedbaaaaaaaaaabdegiijknqtvww
(PID.TID 0000.0001)     26 srrrrrqqqqpppoo...............................sss..................wwyzz++++qqqqpomljihijjkkklk.........srrrsstuuvsstuuvvwwwwwwwvvwwwwwwwwxxxxwwvuuutttslmoprsttttttssrr..................pppo..pppomkifedcbaa----aaaabcdfghhikosuww
(PID.TID 0000.0001)     25 srrrrrqqqqqppo................................tsss................wwyyz+++++qqqponlkihhhhij.kk.........srqqqrsttuvrsttuvvwwwwwwwvwwwwwwwwwxxxwwwvuuttttskmmoqsttttttssr...................pppo..ppponmlhfdcba--------aabcdffggimqtvw
(PID.TID 0000.0001)     24 srrrrqqqqqpppp................................ttsss.....vw.....yxxxxyyzzzzzzqppponlkiihiijkk...........rqppqqrstuvqrstuvvwwwwwwwwwwwwwwwwwxxxwwvvuutttsskklnpstuuttsssr...................pppo..pppooonkhdaa---------aabcddeghilptvw
(PID.TID 0000.0001)     23 rrrrrqqqqqpppp..............................tttttsss...vwww....xxxxxxyzzzzzzppooonlkjjii..jkl..........srqppqqrstvqqrstvvwwwwwwwwwwwwwwwwwxxxwwvvuttttsr..kmortuutts.sr..........rrrr.......oo....oooookieb---aaaaaaaaabbcdeghjlpsvv
(PID.TID 0000.0001)     22 rrrrrqqqqppppp......................uu....uuuuutttts..vvwww....yxxxx.yyyyyyypooonnllkkiij..kkll.........srqppqrstupqrstuvwwwwwxwwwwwwwwxwwxxxxwvuuttttsr...lmpstttrrssr.........ssrrrrrr.....o.....ooonhdcbaaaaa.....bbbbcdfgiiloruv
(PID.TID 0000.0001)     21 rrrrrrqqqqppqp......................uu....uuuuutttts..vvwwww...yyxxx.yyyyyyypoonnnmlkkjij...kkl.ooooo....rrqqqrstuqqrstuvwwxxxxxwwwwwwxxwwxxxxwvuuttttsq....lnpqsrr.ssss.......ssssssssrrrr...rrr....rnhc.aa--a........bbbdfhijloruu
(PID.TID 0000.0001)     20 rrrrrrrrqqqqqq.......................u.....uvuuttsss..wvvvww...yyxx.yzyyyyxxoonnnnmlkkkjk....l.oooooo......rqqqstuqqqstuvwwxxxxwwwwwwwxxwwxxxwwvuuttttrp.......ppq.sssst.vvu.tssssttttsssrrqqqsrrqqqppnie.a---a.........bbdfhikmortu
(PID.TID 0000.0001)     19 rrrrrrrrrqqqqqq.....................uv....uvvuutttttuvvwwvvw.zzyyy.yyyyyyyyyooonnnnmll.kk....lnnnopoo..qqqqrqqqrtuqqqrtuvwxxxxxwwwxxwwxxxxxxxwwvvutttsro...........ssst.vvuuuttsssttttttsrqqposrqqpomljgdc..--..........bbceggjmortu
(PID.TID 0000.0001)     18 srrrrrrrrrqqqqqqrrrrrr..............vv....vvvuutttuuuvvwwww..zzzz..yyyyyyyyy..ooooonmmlkkkl..lmnooponooopqqqqpqrtuqpqrtuvwxxyyxwwwxxxxxxxxxxxwwvvutttsqn........rrssss.uuuuutttttttuuuuttsrqpotsrqponkigdcc.............bbcdefhkoqst
(PID.TID 0000.0001)     17 .srrrrrrrrrqqqrrqqqqrr.............vvv...vvvvuuuuuuuvvvwwwww..zz...yyyyyyyyy........nmlkkkkklmnnnoponnn.pqppppqrtuppqrtuvwxxyyxxwwxxxxxyyxxxxwwvvutttrqn........rsss..uuuuuutttttttuuuuutsrqpotsrqpomkhfdcc..............bbcdegknqst
(PID.TID 0000.0001)     16 ..sssrrqqqqqqqqqqqqqqr............vvuu..vvuuuuuuuuuvvvvvwwwww.++.....xx.yyyy......mnnmlkkkkkklmmnnonnm..ppppppqrsuppqrsuwxxxyyxxwwxxxxxyyxxxwwwvvuttsrqo.........sss..uuuuuuttttttuuvvuutsrqpotsrqpomkhedcc..............bbbcehknqst
(PID.TID 0000.0001)     15 .....srrqqqqqqqqqqqqqqq..........vvuuu.vvuuuuuuuvvvvvvvvvwwwww......wxxx..........oo..mlllk.klmmmnnnmm...pppppprsuppprsuwxxyyyyxwwxxxxxyyxxxxwwvut..ssrq.........sss.tuuuuuuttttttuuvvvutsrqpotsrqpomkhfdccc.............babcfhknqst
(PID.TID 0000.0001)     14 ......rrrrrrrqqqqqqqqqqq.........vvuuu.vvuuuuuvvvvwvvvvvvwwwwww....vwxxxw...............llkkkklmmnmmm....ppoooprsuooprsuwxyyyyyxwwxxxxxyyxxxwwwvuttt..sr..........ss.uuuuuuuttttttuuvvvutsrqqotsrqqomkhfdcbc.............bbbdfiloqst
(PID.TID 0000.0001)     13 ......rrrrrrrrrqqqqqqqqq.........vvvvu.vvvvuvvvvwwvvvvvvwwwwwwwvvvvvw.wxx................lkkkkkmlmm.......ppooprsuooprsuwxyyyyyxxwxxxxxyyxxxwwwvutssssrr.............uuuuuuuuttttuuuvvvutsrrqptsrrqpnkigdcbbb...........bbbcdfilorst
(PID.TID 0000.0001)     12 .....rrrrrrrrrrqqqpppqqq.........vvwwv.vvwwvvvwwwwwwvvvvwwwwwwwwwwwwwxxxx................llk.kkllmm.....op.ppppqsupppqsuwxyzzzyxxwxxxxxyyxxxwwwvuutsssrr............uuuuuuuuuutttuuuvvvuttsrqpttsrqpnljhecbbbbbbbb......bbbcegjmprst
(PID.TID 0000.0001)     11 .....sssrrrrrrqqqqppppp..........uww.v.uww.vvwwwwwwwwwwwwvwwwwwwwwwwwxx..................lllkk..........ppp.pppqsupppqsuwxyzzzyyxxxxxxxyyxxxxwwwvuttsssq...........ttuuuuuuuuuutuuuvvvvvutsrqputsrqpomkigdbbbaaaaa.....bbbdegiloqsst
(PID.TID 0000.0001)     10 .....sssssrrrrrqqqqqqqp.........uuw.vvuuw.vvwwxxwwwxwwwwwvvvvvvwwwww....................................ooppppprsuppprsuwyzzzzzyxxxxxxxyxxxxxwwwwvuttssr..........tttuuuuuuuuuuuuuvvvvvvutssrqutssrqpnmkhebbaaaaaaaaabbbcdfgilnprsss
(PID.TID 0000.0001)      9 .....rssssssssrrrrrqqqpp.......tuvw.vwuvw.vwwxxxxxxxxwwwvvvvvvvvvvw.....................................ppppppqrtvppqrtvxyzzzzzyxxxxxxyxxxxxxxwwwwvutssr.........tttuuuuuuuuuuuuuuvvwvvvuttsrquttsrqqpnlifcaaaaaaaaaaacdefhjlnpqrsss
(PID.TID 0000.0001)      8 ....rssttttssssssrrrrqqo.......tuvw.vwuvw.vwxxxxwwwwwwvvvvuuuuuuu.........................................qppprsuwpprsuwxyzzzzzyxxxxxxxxxxxxxwwvvuuutssr......ssstttuuuuuuuuuuuuuvvvwwvvuutssruutssrrqpmjgdbbbbbbbbaabcefhjlnoqrssst
(PID.TID 0000.0001)      7 ..rrstttttttttttsssrrqqo......ttuvv.vwuvv.vwwwwwwwwwvvvuuuutttttu............................................prtvx.prtvxyzzz+zzyyxxxyxxxxxxxww....ttt.srss..ssstttuuuuuuuuuuuuuuuvvwwwwvuuttssuuttssrrpoligeeeedddcddeefhjlnoqrsssss
(PID.TID 0000.0001)      6 .rrsttttttttttttttssrrqpo.....suvvvvvwvvvvvwwwwwwwvvvvuuuuuttssst............................................prtvx.prtvxyzz++zzyyxxyyxy.xxxxx.......ssssssssssttuuuuuuuuuuvvvuuuvvvwwwwvvuttssvuttsssrqpnlkiihhgggghjihikmnoqrrsssss
(PID.TID 0000.0001)      5 .rrstttttttttttttttsssrpo....stvwwwwwxwwwwwxwwwwwvvvvuuuuuutttsst..........................................pqqrsuwqqrsuwyz+++zzyyxxyyyy..xxx.........sssttttttuuuuuuuuuuuvvvvvuuvvwwwwwvvuuttsvuuttsssrqponmlkjjjklnomlmnopqrrssssss
(PID.TID 0000.0001)      4 qrstttttttttssssssssssrqppqrrtvwxxxxxxxxxxxxwwwwwwvvvuuuuuuttttst..........................................pqr.stvqr.stvyz+++zzyyxyyyyy..............sssttuuuuuuuuuuuuuuuvvvvvvvvvwwwwwvvuutttvuuttttsssrqqponmllnpqrpoopqrrrsssssss
(PID.TID 0000.0001)      3 rrsttttttsssssrrrrrrrrrrrrstuvwxxxxxxxxxxxxxwwwwwwvvuuuttttttttsstsssssr..................................pqqrs.tvqrs.tvyz+++zzyyxyyyy...............sssuuuuuvvvuuuuuuuuvvvvvvvvvvwwwwwwvuuuttvuuutttttsssrrqponnoqrrrqrrrrsssssssss
(PID.TID 0000.0001)      2 rssttttsssrrrrqqqqqqqqqrrstuvwxxxxxxxxxxxxxxwwwwvvvuuttssssssssssssssssrr.................................pqrss.tvrss.tvxz+++zzyyxyyyy..............ssssuuuuvvvvvuuuuuuuvvvvvvvvvwwwxxwwvvuuttvvuutttttttssssrrqqqrsrrssssssssssssrr
(PID.TID 0000.0001)      1 sstttsssrrqqpppoooooooopqrtuvwwxxxxxxwxxxxxwwwvuttsrrrrqqqqqrrsssssssssssss...............................pqrss.turss.tuxz+++zzyyyyyyy..............ssssuuvvvvvvvvvuuuuuvvvvvvvvvwwwxxwwvvuuuuvvuuuuttttttttttssrrs.ssssss.sssssssr.
(PID.TID 0000.0001)      0 ...tssrrqpponnmmlllllmmmnpqstuvvwww......wwwvutsqppooooonnnoopqrrssssssss...............................qq.rss........tuwyz++zzyyyyyyy.wxx.........rs......vvvvvvvvvuuuuvvvvvvvvvwwxxxwwvvu......uuuuutttttttttttss.ssstttts...ss...
(PID.TID 0000.0001)     -1 ...ssrrqponmlkjjiiiiiijklmopqrtuvww......wwvusqomllllmmkkkkllmopqrsssssss...............................rr.ss.t......s.uvxzz+zzyyyyyy.xxxx........rrs......vvvvvvvvvvuuvvvvvvvvvvwwxxxwvvuu......vuuuuuutttttttttt.tssttuut.........
(PID.TID 0000.0001)     -2 ...srrqpnmkjihgggfffffghijlmopqstvw......wvtrpnkiijijkjhghhiijlnpqrrsssss................................sst.uu......ss.uwyzzzzyyyyyyxxxwxx.......sss......vvvvvvvvvvuuvvvvvvwvvvwwxxxwvvuu......vvvuuuuuutttttttt.tsttuvut.........
(PID.TID 0000.0001) // =======================================================
(PID.TID 0000.0001) // END OF FIELD                                          =
(PID.TID 0000.0001) // =======================================================
(PID.TID 0000.0001) 
(PID.TID 0000.0001) // Time-average data written, t-step       360
(PID.TID 0000.0001) 
(PID.TID 0000.0001)   Seconds in section "ALL                    [THE_MODEL_MAIN]":
(PID.TID 0000.0001)           User time:   220.299997558817
(PID.TID 0000.0001)         System time:  0.310000002384186
(PID.TID 0000.0001)     Wall clock time:   224.713257074356
(PID.TID 0000.0001)          No. starts:           1
(PID.TID 0000.0001)           No. stops:           1
(PID.TID 0000.0001)   Seconds in section "INITIALISE_FIXED       [THE_MODEL_MAIN]":
(PID.TID 0000.0001)           User time:  0.290000012144446
(PID.TID 0000.0001)         System time:   3.99999991059303D-002
(PID.TID 0000.0001)     Wall clock time:  0.769054055213928
(PID.TID 0000.0001)          No. starts:           1
(PID.TID 0000.0001)           No. stops:           1
(PID.TID 0000.0001)   Seconds in section "THE_MAIN_LOOP          [THE_MODEL_MAIN]":
(PID.TID 0000.0001)           User time:   220.009997546673
(PID.TID 0000.0001)         System time:  0.270000003278255
(PID.TID 0000.0001)     Wall clock time:   223.944085955620
(PID.TID 0000.0001)          No. starts:           1
(PID.TID 0000.0001)           No. stops:           1
(PID.TID 0000.0001)   Seconds in section "INITIALISE_VARIA    [THE_MAIN_LOOP]":
(PID.TID 0000.0001)           User time:  0.890000045299530
(PID.TID 0000.0001)         System time:   5.00000044703484D-002
(PID.TID 0000.0001)     Wall clock time:  0.938521981239319
(PID.TID 0000.0001)          No. starts:           1
(PID.TID 0000.0001)           No. stops:           1
(PID.TID 0000.0001)   Seconds in section "WRITE_STATE         [THE_MAIN_LOOP]":
(PID.TID 0000.0001)           User time:   7.99999237060547D-002
(PID.TID 0000.0001)         System time:   4.99999970197678D-002
(PID.TID 0000.0001)     Wall clock time:  0.443289995193481
(PID.TID 0000.0001)          No. starts:           1
(PID.TID 0000.0001)           No. stops:           1
(PID.TID 0000.0001)   Seconds in section "MONITOR             [THE_MAIN_LOOP]":
(PID.TID 0000.0001)           User time:   5.00000715255737D-002
(PID.TID 0000.0001)         System time:   0.00000000000000D+000
(PID.TID 0000.0001)     Wall clock time:   5.21479845046997D-002
(PID.TID 0000.0001)          No. starts:           1
(PID.TID 0000.0001)           No. stops:           1
(PID.TID 0000.0001)   Seconds in section "MAIN LOOP           [THE_MAIN_LOOP]":
(PID.TID 0000.0001)           User time:   218.989997506142
(PID.TID 0000.0001)         System time:  0.170000001788139
(PID.TID 0000.0001)     Wall clock time:   222.510033011436
(PID.TID 0000.0001)          No. starts:           1
(PID.TID 0000.0001)           No. stops:           1
(PID.TID 0000.0001)   Seconds in section "FORWARD_STEP        [THE_MAIN_LOOP]":
(PID.TID 0000.0001)           User time:   218.959993004799
(PID.TID 0000.0001)         System time:  0.170000001788139
(PID.TID 0000.0001)     Wall clock time:   222.504326105118
(PID.TID 0000.0001)          No. starts:         360
(PID.TID 0000.0001)           No. stops:         360
(PID.TID 0000.0001)   Seconds in section "BULKF_FIELDS_LOAD[THE_MAIN_LOOP]":
(PID.TID 0000.0001)           User time:   1.30998921394348
(PID.TID 0000.0001)         System time:   3.00000160932541D-002
(PID.TID 0000.0001)     Wall clock time:   1.42385518550873
(PID.TID 0000.0001)          No. starts:         360
(PID.TID 0000.0001)           No. stops:         360
(PID.TID 0000.0001)   Seconds in section "THERMODYNAMICS      [FORWARD_STEP]":
(PID.TID 0000.0001)           User time:   92.5600724220276
(PID.TID 0000.0001)         System time:   0.00000000000000D+000
(PID.TID 0000.0001)     Wall clock time:   92.4893211126327
(PID.TID 0000.0001)          No. starts:         360
(PID.TID 0000.0001)           No. stops:         360
(PID.TID 0000.0001)   Seconds in section "BLOCKING_EXCHANGES  [FORWARD_STEP]":
(PID.TID 0000.0001)           User time:   4.35002183914185
(PID.TID 0000.0001)         System time:   0.00000000000000D+000
(PID.TID 0000.0001)     Wall clock time:   4.28939259052277
(PID.TID 0000.0001)          No. starts:         720
(PID.TID 0000.0001)           No. stops:         720
(PID.TID 0000.0001)   Seconds in section "DYNAMICS            [FORWARD_STEP]":
(PID.TID 0000.0001)           User time:   86.1999230384827
(PID.TID 0000.0001)         System time:   9.99999046325684D-003
(PID.TID 0000.0001)     Wall clock time:   86.2339746952057
(PID.TID 0000.0001)          No. starts:         360
(PID.TID 0000.0001)           No. stops:         360
(PID.TID 0000.0001)   Seconds in section "SOLVE_FOR_PRESSURE  [FORWARD_STEP]":
(PID.TID 0000.0001)           User time:   13.3399779796600
(PID.TID 0000.0001)         System time:   9.99999046325684D-003
(PID.TID 0000.0001)     Wall clock time:   13.3370656967163
(PID.TID 0000.0001)          No. starts:         360
(PID.TID 0000.0001)           No. stops:         360
(PID.TID 0000.0001)   Seconds in section "THE_CORRECTION_STEP [FORWARD_STEP]":
(PID.TID 0000.0001)           User time:   15.0300513505936
(PID.TID 0000.0001)         System time:   0.00000000000000D+000
(PID.TID 0000.0001)     Wall clock time:   15.0738070011139
(PID.TID 0000.0001)          No. starts:         360
(PID.TID 0000.0001)           No. stops:         360
(PID.TID 0000.0001)   Seconds in section "MONITOR             [FORWARD_STEP]":
(PID.TID 0000.0001)           User time:   6.99996948242188D-002
(PID.TID 0000.0001)         System time:   0.00000000000000D+000
(PID.TID 0000.0001)     Wall clock time:   5.91962337493897D-002
(PID.TID 0000.0001)          No. starts:         360
(PID.TID 0000.0001)           No. stops:         360
(PID.TID 0000.0001)   Seconds in section "DO_THE_MODEL_IO     [FORWARD_STEP]":
(PID.TID 0000.0001)           User time:  0.389999389648437
(PID.TID 0000.0001)         System time:   8.00000131130219D-002
(PID.TID 0000.0001)     Wall clock time:   2.37760567665100
(PID.TID 0000.0001)          No. starts:         360
(PID.TID 0000.0001)           No. stops:         360
(PID.TID 0000.0001)   Seconds in section "WRITE_CHECKPOINT    [FORWARD_STEP]":
(PID.TID 0000.0001)           User time:  0.339996337890625
(PID.TID 0000.0001)         System time:   3.99999916553497D-002
(PID.TID 0000.0001)     Wall clock time:   1.78099966049194
(PID.TID 0000.0001)          No. starts:         360
(PID.TID 0000.0001)           No. stops:         360
(PID.TID 0000.0001)   Seconds in section "WRITE_CHECKPOINT       [THE_MODEL_MAIN]":
(PID.TID 0000.0001)           User time:   0.00000000000000D+000
(PID.TID 0000.0001)         System time:   0.00000000000000D+000
(PID.TID 0000.0001)     Wall clock time:   1.80006027221680D-005
(PID.TID 0000.0001)          No. starts:           1
(PID.TID 0000.0001)           No. stops:           1
(PID.TID 0000.0001) // ======================================================
(PID.TID 0000.0001) // Tile <-> Tile communication statistics
(PID.TID 0000.0001) // ======================================================
(PID.TID 0000.0001) // o Tile number: 000001
(PID.TID 0000.0001) //         No. X exchanges =              0
(PID.TID 0000.0001) //            Max. X spins =              0
(PID.TID 0000.0001) //            Min. X spins =     1000000000
(PID.TID 0000.0001) //          Total. X spins =              0
(PID.TID 0000.0001) //            Avg. X spins =       0.00E+00
(PID.TID 0000.0001) //         No. Y exchanges =              0
(PID.TID 0000.0001) //            Max. Y spins =              0
(PID.TID 0000.0001) //            Min. Y spins =     1000000000
(PID.TID 0000.0001) //          Total. Y spins =              0
(PID.TID 0000.0001) //            Avg. Y spins =       0.00E+00
(PID.TID 0000.0001) // o Tile number: 000002
(PID.TID 0000.0001) //         No. X exchanges =              0
(PID.TID 0000.0001) //            Max. X spins =              0
(PID.TID 0000.0001) //            Min. X spins =     1000000000
(PID.TID 0000.0001) //          Total. X spins =              0
(PID.TID 0000.0001) //            Avg. X spins =       0.00E+00
(PID.TID 0000.0001) //         No. Y exchanges =              0
(PID.TID 0000.0001) //            Max. Y spins =              0
(PID.TID 0000.0001) //            Min. Y spins =     1000000000
(PID.TID 0000.0001) //          Total. Y spins =              0
(PID.TID 0000.0001) //            Avg. Y spins =       0.00E+00
(PID.TID 0000.0001) // o Tile number: 000003
(PID.TID 0000.0001) //         No. X exchanges =              0
(PID.TID 0000.0001) //            Max. X spins =              0
(PID.TID 0000.0001) //            Min. X spins =     1000000000
(PID.TID 0000.0001) //          Total. X spins =              0
(PID.TID 0000.0001) //            Avg. X spins =       0.00E+00
(PID.TID 0000.0001) //         No. Y exchanges =              0
(PID.TID 0000.0001) //            Max. Y spins =              0
(PID.TID 0000.0001) //            Min. Y spins =     1000000000
(PID.TID 0000.0001) //          Total. Y spins =              0
(PID.TID 0000.0001) //            Avg. Y spins =       0.00E+00
(PID.TID 0000.0001) // o Tile number: 000004
(PID.TID 0000.0001) //         No. X exchanges =              0
(PID.TID 0000.0001) //            Max. X spins =              0
(PID.TID 0000.0001) //            Min. X spins =     1000000000
(PID.TID 0000.0001) //          Total. X spins =              0
(PID.TID 0000.0001) //            Avg. X spins =       0.00E+00
(PID.TID 0000.0001) //         No. Y exchanges =              0
(PID.TID 0000.0001) //            Max. Y spins =              0
(PID.TID 0000.0001) //            Min. Y spins =     1000000000
(PID.TID 0000.0001) //          Total. Y spins =              0
(PID.TID 0000.0001) //            Avg. Y spins =       0.00E+00
(PID.TID 0000.0001) // o Tile number: 000005
(PID.TID 0000.0001) //         No. X exchanges =              0
(PID.TID 0000.0001) //            Max. X spins =              0
(PID.TID 0000.0001) //            Min. X spins =     1000000000
(PID.TID 0000.0001) //          Total. X spins =              0
(PID.TID 0000.0001) //            Avg. X spins =       0.00E+00
(PID.TID 0000.0001) //         No. Y exchanges =              0
(PID.TID 0000.0001) //            Max. Y spins =              0
(PID.TID 0000.0001) //            Min. Y spins =     1000000000
(PID.TID 0000.0001) //          Total. Y spins =              0
(PID.TID 0000.0001) //            Avg. Y spins =       0.00E+00
(PID.TID 0000.0001) // o Tile number: 000006
(PID.TID 0000.0001) //         No. X exchanges =              0
(PID.TID 0000.0001) //            Max. X spins =              0
(PID.TID 0000.0001) //            Min. X spins =     1000000000
(PID.TID 0000.0001) //          Total. X spins =              0
(PID.TID 0000.0001) //            Avg. X spins =       0.00E+00
(PID.TID 0000.0001) //         No. Y exchanges =              0
(PID.TID 0000.0001) //            Max. Y spins =              0
(PID.TID 0000.0001) //            Min. Y spins =     1000000000
(PID.TID 0000.0001) //          Total. Y spins =              0
(PID.TID 0000.0001) //            Avg. Y spins =       0.00E+00
(PID.TID 0000.0001) // o Thread number: 000001
(PID.TID 0000.0001) //            No. barriers =         551722
(PID.TID 0000.0001) //      Max. barrier spins =              1
(PID.TID 0000.0001) //      Min. barrier spins =              1
(PID.TID 0000.0001) //     Total barrier spins =         551722
(PID.TID 0000.0001) //      Avg. barrier spins =       1.00E+00
FORTRAN STOP NORMAL END
